* SPICE3 file created from IA_v4.ext - technology: sky130A

.subckt sky130_fd_pr__res_high_po_0p69_JKKHRG a_n199_n1768# a_n69_1206# a_n69_n1638#
X0 a_n69_1206# a_n69_n1638# a_n199_n1768# sky130_fd_pr__res_high_po_0p69 l=12.1
C0 a_n69_n1638# a_n199_n1768# 0.675f
C1 a_n69_1206# a_n199_n1768# 0.675f
.ends

.subckt sky130_fd_pr__res_high_po_0p69_Z3RMRJ a_48_1206# a_n186_n1638# a_n186_1206#
+ a_n316_n1768# a_48_n1638#
X0 a_48_1206# a_48_n1638# a_n316_n1768# sky130_fd_pr__res_high_po_0p69 l=12.1
X1 a_n186_1206# a_n186_n1638# a_n316_n1768# sky130_fd_pr__res_high_po_0p69 l=12.1
C0 a_n186_1206# a_48_1206# 0.296f
C1 a_n186_n1638# a_48_n1638# 0.296f
C2 a_48_n1638# a_n316_n1768# 0.465f
C3 a_48_1206# a_n316_n1768# 0.465f
C4 a_n186_n1638# a_n316_n1768# 0.465f
C5 a_n186_1206# a_n316_n1768# 0.465f
.ends

.subckt sky130_fd_pr__res_high_po_0p69_Z3RMR6 a_516_n1638# a_48_1206# a_n654_1206#
+ a_n888_1206# a_n186_n1638# a_n186_1206# a_750_1206# a_n654_n1638# a_282_1206# a_282_n1638#
+ a_48_n1638# a_750_n1638# a_n420_n1638# a_516_1206# a_n1018_n1768# a_n420_1206# a_n888_n1638#
X0 a_n420_1206# a_n420_n1638# a_n1018_n1768# sky130_fd_pr__res_high_po_0p69 l=12.1
X1 a_48_1206# a_48_n1638# a_n1018_n1768# sky130_fd_pr__res_high_po_0p69 l=12.1
X2 a_750_1206# a_750_n1638# a_n1018_n1768# sky130_fd_pr__res_high_po_0p69 l=12.1
X3 a_n888_1206# a_n888_n1638# a_n1018_n1768# sky130_fd_pr__res_high_po_0p69 l=12.1
X4 a_282_1206# a_282_n1638# a_n1018_n1768# sky130_fd_pr__res_high_po_0p69 l=12.1
X5 a_n654_1206# a_n654_n1638# a_n1018_n1768# sky130_fd_pr__res_high_po_0p69 l=12.1
X6 a_n186_1206# a_n186_n1638# a_n1018_n1768# sky130_fd_pr__res_high_po_0p69 l=12.1
X7 a_516_1206# a_516_n1638# a_n1018_n1768# sky130_fd_pr__res_high_po_0p69 l=12.1
C0 a_n420_n1638# a_n654_n1638# 0.296f
C1 a_48_n1638# a_n186_n1638# 0.296f
C2 a_n888_1206# a_n654_1206# 0.296f
C3 a_282_1206# a_516_1206# 0.296f
C4 a_n186_1206# a_48_1206# 0.296f
C5 a_48_n1638# a_282_n1638# 0.296f
C6 a_n420_1206# a_n654_1206# 0.296f
C7 a_750_1206# a_516_1206# 0.296f
C8 a_n888_n1638# a_n654_n1638# 0.296f
C9 a_n420_1206# a_n186_1206# 0.296f
C10 a_n420_n1638# a_n186_n1638# 0.296f
C11 a_516_n1638# a_750_n1638# 0.296f
C12 a_516_n1638# a_282_n1638# 0.296f
C13 a_282_1206# a_48_1206# 0.296f
C14 a_750_n1638# a_n1018_n1768# 0.465f
C15 a_750_1206# a_n1018_n1768# 0.465f
C16 a_516_n1638# a_n1018_n1768# 0.255f
C17 a_516_1206# a_n1018_n1768# 0.255f
C18 a_282_n1638# a_n1018_n1768# 0.255f
C19 a_282_1206# a_n1018_n1768# 0.255f
C20 a_48_n1638# a_n1018_n1768# 0.255f
C21 a_48_1206# a_n1018_n1768# 0.255f
C22 a_n186_n1638# a_n1018_n1768# 0.255f
C23 a_n186_1206# a_n1018_n1768# 0.255f
C24 a_n420_n1638# a_n1018_n1768# 0.255f
C25 a_n420_1206# a_n1018_n1768# 0.255f
C26 a_n654_n1638# a_n1018_n1768# 0.255f
C27 a_n654_1206# a_n1018_n1768# 0.255f
C28 a_n888_n1638# a_n1018_n1768# 0.465f
C29 a_n888_1206# a_n1018_n1768# 0.465f
.ends

.subckt sky130_fd_pr__res_high_po_0p69_YMHKRJ a_48_1206# a_n550_n1768# a_n186_n1638#
+ a_n186_1206# a_282_1206# a_282_n1638# a_48_n1638# a_n420_n1638# a_n420_1206#
X0 a_n420_1206# a_n420_n1638# a_n550_n1768# sky130_fd_pr__res_high_po_0p69 l=12.1
X1 a_48_1206# a_48_n1638# a_n550_n1768# sky130_fd_pr__res_high_po_0p69 l=12.1
X2 a_282_1206# a_282_n1638# a_n550_n1768# sky130_fd_pr__res_high_po_0p69 l=12.1
X3 a_n186_1206# a_n186_n1638# a_n550_n1768# sky130_fd_pr__res_high_po_0p69 l=12.1
C0 a_48_1206# a_282_1206# 0.296f
C1 a_48_n1638# a_282_n1638# 0.296f
C2 a_n186_1206# a_48_1206# 0.296f
C3 a_n186_1206# a_n420_1206# 0.296f
C4 a_n420_n1638# a_n186_n1638# 0.296f
C5 a_48_n1638# a_n186_n1638# 0.296f
C6 a_282_n1638# a_n550_n1768# 0.465f
C7 a_282_1206# a_n550_n1768# 0.465f
C8 a_48_n1638# a_n550_n1768# 0.255f
C9 a_48_1206# a_n550_n1768# 0.255f
C10 a_n186_n1638# a_n550_n1768# 0.255f
C11 a_n186_1206# a_n550_n1768# 0.255f
C12 a_n420_n1638# a_n550_n1768# 0.465f
C13 a_n420_1206# a_n550_n1768# 0.465f
.ends

.subckt sky130_fd_pr__res_high_po_0p69_HBQF5Z a_516_n1638# a_48_1206# a_n654_1206#
+ a_n888_1206# a_1452_1206# a_n1122_n1638# a_1452_n1638# a_n186_n1638# a_n186_1206#
+ a_n1954_n1768# a_1686_1206# a_750_1206# a_n654_n1638# a_n1590_1206# a_984_n1638#
+ a_984_1206# a_n1824_1206# a_n1590_n1638# a_1218_n1638# a_282_1206# a_n1122_1206#
+ a_1218_1206# a_282_n1638# a_48_n1638# a_750_n1638# a_n420_n1638# a_n1356_1206# a_516_1206#
+ a_n1356_n1638# a_1686_n1638# a_n420_1206# a_n1824_n1638# a_n888_n1638#
X0 a_n420_1206# a_n420_n1638# a_n1954_n1768# sky130_fd_pr__res_high_po_0p69 l=12.1
X1 a_1452_1206# a_1452_n1638# a_n1954_n1768# sky130_fd_pr__res_high_po_0p69 l=12.1
X2 a_n1824_1206# a_n1824_n1638# a_n1954_n1768# sky130_fd_pr__res_high_po_0p69 l=12.1
X3 a_n1590_1206# a_n1590_n1638# a_n1954_n1768# sky130_fd_pr__res_high_po_0p69 l=12.1
X4 a_48_1206# a_48_n1638# a_n1954_n1768# sky130_fd_pr__res_high_po_0p69 l=12.1
X5 a_984_1206# a_984_n1638# a_n1954_n1768# sky130_fd_pr__res_high_po_0p69 l=12.1
X6 a_n1356_1206# a_n1356_n1638# a_n1954_n1768# sky130_fd_pr__res_high_po_0p69 l=12.1
X7 a_1218_1206# a_1218_n1638# a_n1954_n1768# sky130_fd_pr__res_high_po_0p69 l=12.1
X8 a_750_1206# a_750_n1638# a_n1954_n1768# sky130_fd_pr__res_high_po_0p69 l=12.1
X9 a_n1122_1206# a_n1122_n1638# a_n1954_n1768# sky130_fd_pr__res_high_po_0p69 l=12.1
X10 a_n888_1206# a_n888_n1638# a_n1954_n1768# sky130_fd_pr__res_high_po_0p69 l=12.1
X11 a_282_1206# a_282_n1638# a_n1954_n1768# sky130_fd_pr__res_high_po_0p69 l=12.1
X12 a_n654_1206# a_n654_n1638# a_n1954_n1768# sky130_fd_pr__res_high_po_0p69 l=12.1
X13 a_n186_1206# a_n186_n1638# a_n1954_n1768# sky130_fd_pr__res_high_po_0p69 l=12.1
X14 a_516_1206# a_516_n1638# a_n1954_n1768# sky130_fd_pr__res_high_po_0p69 l=12.1
X15 a_1686_1206# a_1686_n1638# a_n1954_n1768# sky130_fd_pr__res_high_po_0p69 l=12.1
C0 a_1686_n1638# a_1452_n1638# 0.296f
C1 a_48_n1638# a_n186_n1638# 0.296f
C2 a_984_1206# a_1218_1206# 0.296f
C3 a_1452_1206# a_1218_1206# 0.296f
C4 a_750_1206# a_516_1206# 0.296f
C5 a_48_1206# a_282_1206# 0.296f
C6 a_n654_1206# a_n420_1206# 0.296f
C7 a_n1356_n1638# a_n1590_n1638# 0.296f
C8 a_n1122_n1638# a_n888_n1638# 0.296f
C9 a_n186_1206# a_n420_1206# 0.296f
C10 a_n1824_1206# a_n1590_1206# 0.296f
C11 a_n1824_n1638# a_n1590_n1638# 0.296f
C12 a_n888_n1638# a_n654_n1638# 0.296f
C13 a_1686_1206# a_1452_1206# 0.296f
C14 a_1452_n1638# a_1218_n1638# 0.296f
C15 a_516_1206# a_282_1206# 0.296f
C16 a_750_n1638# a_516_n1638# 0.296f
C17 a_48_1206# a_n186_1206# 0.296f
C18 a_n1356_1206# a_n1122_1206# 0.296f
C19 a_516_n1638# a_282_n1638# 0.296f
C20 a_n1356_n1638# a_n1122_n1638# 0.296f
C21 a_n420_n1638# a_n654_n1638# 0.296f
C22 a_n420_n1638# a_n186_n1638# 0.296f
C23 a_750_1206# a_984_1206# 0.296f
C24 a_48_n1638# a_282_n1638# 0.296f
C25 a_n888_1206# a_n654_1206# 0.296f
C26 a_n888_1206# a_n1122_1206# 0.296f
C27 a_984_n1638# a_1218_n1638# 0.296f
C28 a_n1590_1206# a_n1356_1206# 0.296f
C29 a_750_n1638# a_984_n1638# 0.296f
C30 a_1686_n1638# a_n1954_n1768# 0.465f
C31 a_1686_1206# a_n1954_n1768# 0.465f
C32 a_1452_n1638# a_n1954_n1768# 0.255f
C33 a_1452_1206# a_n1954_n1768# 0.255f
C34 a_1218_n1638# a_n1954_n1768# 0.255f
C35 a_1218_1206# a_n1954_n1768# 0.255f
C36 a_984_n1638# a_n1954_n1768# 0.255f
C37 a_984_1206# a_n1954_n1768# 0.255f
C38 a_750_n1638# a_n1954_n1768# 0.255f
C39 a_750_1206# a_n1954_n1768# 0.255f
C40 a_516_n1638# a_n1954_n1768# 0.255f
C41 a_516_1206# a_n1954_n1768# 0.255f
C42 a_282_n1638# a_n1954_n1768# 0.255f
C43 a_282_1206# a_n1954_n1768# 0.255f
C44 a_48_n1638# a_n1954_n1768# 0.255f
C45 a_48_1206# a_n1954_n1768# 0.255f
C46 a_n186_n1638# a_n1954_n1768# 0.255f
C47 a_n186_1206# a_n1954_n1768# 0.255f
C48 a_n420_n1638# a_n1954_n1768# 0.255f
C49 a_n420_1206# a_n1954_n1768# 0.255f
C50 a_n654_n1638# a_n1954_n1768# 0.255f
C51 a_n654_1206# a_n1954_n1768# 0.255f
C52 a_n888_n1638# a_n1954_n1768# 0.255f
C53 a_n888_1206# a_n1954_n1768# 0.255f
C54 a_n1122_n1638# a_n1954_n1768# 0.255f
C55 a_n1122_1206# a_n1954_n1768# 0.255f
C56 a_n1356_n1638# a_n1954_n1768# 0.255f
C57 a_n1356_1206# a_n1954_n1768# 0.255f
C58 a_n1590_n1638# a_n1954_n1768# 0.255f
C59 a_n1590_1206# a_n1954_n1768# 0.255f
C60 a_n1824_n1638# a_n1954_n1768# 0.465f
C61 a_n1824_1206# a_n1954_n1768# 0.465f
.ends

.subckt sky130_fd_pr__nfet_g5v0d10v5_727CUP a_n100_n565# a_100_n477# a_n292_n699#
+ a_n158_n477#
X0 a_100_n477# a_n100_n565# a_n158_n477# a_n292_n699# sky130_fd_pr__nfet_g5v0d10v5 ad=1.38 pd=10.1 as=1.38 ps=10.1 w=4.77 l=1
C0 a_n158_n477# a_n100_n565# 0.107f
C1 a_100_n477# a_n100_n565# 0.107f
C2 a_100_n477# a_n158_n477# 0.261f
C3 a_100_n477# a_n292_n699# 0.53f
C4 a_n158_n477# a_n292_n699# 0.53f
C5 a_n100_n565# a_n292_n699# 0.714f
.ends

.subckt sky130_fd_pr__nfet_g5v0d10v5_VU5C5A a_n287_n487# a_n421_n709# a_n229_n575#
+ a_229_n487# a_n29_n487# a_29_n575#
X0 a_229_n487# a_29_n575# a_n29_n487# a_n421_n709# sky130_fd_pr__nfet_g5v0d10v5 ad=1.41 pd=10.3 as=0.706 ps=5.16 w=4.87 l=1
X1 a_n29_n487# a_n229_n575# a_n287_n487# a_n421_n709# sky130_fd_pr__nfet_g5v0d10v5 ad=0.706 pd=5.16 as=1.41 ps=10.3 w=4.87 l=1
C0 a_29_n575# a_n229_n575# 0.104f
C1 a_n29_n487# a_29_n575# 0.11f
C2 a_n287_n487# a_n229_n575# 0.11f
C3 a_n287_n487# a_n29_n487# 0.267f
C4 a_229_n487# a_29_n575# 0.11f
C5 a_n29_n487# a_n229_n575# 0.11f
C6 a_229_n487# a_n29_n487# 0.267f
C7 a_229_n487# a_n421_n709# 0.54f
C8 a_n29_n487# a_n421_n709# 0.163f
C9 a_n287_n487# a_n421_n709# 0.54f
C10 a_29_n575# a_n421_n709# 0.651f
C11 a_n229_n575# a_n421_n709# 0.651f
.ends

.subckt sky130_fd_pr__nfet_g5v0d10v5_J97EKB a_487_n438# a_n803_n438# a_29_n526# a_n745_n526#
+ a_n287_n438# a_n1061_n438# a_803_n526# a_745_n438# a_n229_n526# a_287_n526# a_n1003_n526#
+ a_229_n438# a_n545_n438# a_1003_n438# a_n487_n526# a_n1195_n660# a_545_n526# a_n29_n438#
X0 a_1003_n438# a_803_n526# a_745_n438# a_n1195_n660# sky130_fd_pr__nfet_g5v0d10v5 ad=1.27 pd=9.34 as=0.635 ps=4.67 w=4.38 l=1
X1 a_745_n438# a_545_n526# a_487_n438# a_n1195_n660# sky130_fd_pr__nfet_g5v0d10v5 ad=0.635 pd=4.67 as=0.635 ps=4.67 w=4.38 l=1
X2 a_487_n438# a_287_n526# a_229_n438# a_n1195_n660# sky130_fd_pr__nfet_g5v0d10v5 ad=0.635 pd=4.67 as=0.635 ps=4.67 w=4.38 l=1
X3 a_229_n438# a_29_n526# a_n29_n438# a_n1195_n660# sky130_fd_pr__nfet_g5v0d10v5 ad=0.635 pd=4.67 as=0.635 ps=4.67 w=4.38 l=1
X4 a_n29_n438# a_n229_n526# a_n287_n438# a_n1195_n660# sky130_fd_pr__nfet_g5v0d10v5 ad=0.635 pd=4.67 as=0.635 ps=4.67 w=4.38 l=1
X5 a_n545_n438# a_n745_n526# a_n803_n438# a_n1195_n660# sky130_fd_pr__nfet_g5v0d10v5 ad=0.635 pd=4.67 as=0.635 ps=4.67 w=4.38 l=1
X6 a_n287_n438# a_n487_n526# a_n545_n438# a_n1195_n660# sky130_fd_pr__nfet_g5v0d10v5 ad=0.635 pd=4.67 as=0.635 ps=4.67 w=4.38 l=1
X7 a_n803_n438# a_n1003_n526# a_n1061_n438# a_n1195_n660# sky130_fd_pr__nfet_g5v0d10v5 ad=0.635 pd=4.67 as=1.27 ps=9.34 w=4.38 l=1
C0 a_n745_n526# a_n1003_n526# 0.104f
C1 a_287_n526# a_487_n438# 0.099f
C2 a_1003_n438# a_803_n526# 0.099f
C3 a_n1061_n438# a_n803_n438# 0.24f
C4 a_29_n526# a_n29_n438# 0.099f
C5 a_487_n438# a_229_n438# 0.24f
C6 a_n487_n526# a_n545_n438# 0.099f
C7 a_745_n438# a_545_n526# 0.099f
C8 a_803_n526# a_745_n438# 0.099f
C9 a_n803_n438# a_n745_n526# 0.099f
C10 a_n545_n438# a_n287_n438# 0.24f
C11 a_n29_n438# a_229_n438# 0.24f
C12 a_n487_n526# a_n229_n526# 0.104f
C13 a_803_n526# a_545_n526# 0.104f
C14 a_n487_n526# a_n287_n438# 0.099f
C15 a_287_n526# a_29_n526# 0.104f
C16 a_n803_n438# a_n545_n438# 0.24f
C17 a_287_n526# a_545_n526# 0.104f
C18 a_29_n526# a_229_n438# 0.099f
C19 a_745_n438# a_487_n438# 0.24f
C20 a_n229_n526# a_n287_n438# 0.099f
C21 a_n1061_n438# a_n1003_n526# 0.099f
C22 a_n803_n438# a_n1003_n526# 0.099f
C23 a_1003_n438# a_745_n438# 0.24f
C24 a_n229_n526# a_n29_n438# 0.099f
C25 a_n29_n438# a_n287_n438# 0.24f
C26 a_487_n438# a_545_n526# 0.099f
C27 a_287_n526# a_229_n438# 0.099f
C28 a_n545_n438# a_n745_n526# 0.099f
C29 a_n487_n526# a_n745_n526# 0.104f
C30 a_29_n526# a_n229_n526# 0.104f
C31 a_1003_n438# a_n1195_n660# 0.489f
C32 a_745_n438# a_n1195_n660# 0.149f
C33 a_487_n438# a_n1195_n660# 0.149f
C34 a_229_n438# a_n1195_n660# 0.149f
C35 a_n29_n438# a_n1195_n660# 0.149f
C36 a_n287_n438# a_n1195_n660# 0.149f
C37 a_n545_n438# a_n1195_n660# 0.149f
C38 a_n803_n438# a_n1195_n660# 0.149f
C39 a_n1061_n438# a_n1195_n660# 0.489f
C40 a_803_n526# a_n1195_n660# 0.65f
C41 a_545_n526# a_n1195_n660# 0.587f
C42 a_287_n526# a_n1195_n660# 0.587f
C43 a_29_n526# a_n1195_n660# 0.587f
C44 a_n229_n526# a_n1195_n660# 0.587f
C45 a_n487_n526# a_n1195_n660# 0.587f
C46 a_n745_n526# a_n1195_n660# 0.587f
C47 a_n1003_n526# a_n1195_n660# 0.65f
.ends

.subckt sky130_fd_pr__nfet_g5v0d10v5_S7E57E a_n229_n553# a_287_n553# a_229_n465# a_n545_n465#
+ a_n487_n553# a_487_n465# a_n29_n465# a_n679_n687# a_29_n553# a_n287_n465#
X0 a_487_n465# a_287_n553# a_229_n465# a_n679_n687# sky130_fd_pr__nfet_g5v0d10v5 ad=1.35 pd=9.88 as=0.674 ps=4.94 w=4.65 l=1
X1 a_229_n465# a_29_n553# a_n29_n465# a_n679_n687# sky130_fd_pr__nfet_g5v0d10v5 ad=0.674 pd=4.94 as=0.674 ps=4.94 w=4.65 l=1
X2 a_n29_n465# a_n229_n553# a_n287_n465# a_n679_n687# sky130_fd_pr__nfet_g5v0d10v5 ad=0.674 pd=4.94 as=0.674 ps=4.94 w=4.65 l=1
X3 a_n287_n465# a_n487_n553# a_n545_n465# a_n679_n687# sky130_fd_pr__nfet_g5v0d10v5 ad=0.674 pd=4.94 as=1.35 ps=9.88 w=4.65 l=1
C0 a_487_n465# a_287_n553# 0.105f
C1 a_n29_n465# a_n287_n465# 0.255f
C2 a_229_n465# a_287_n553# 0.105f
C3 a_29_n553# a_287_n553# 0.104f
C4 a_n487_n553# a_n287_n465# 0.105f
C5 a_n29_n465# a_n229_n553# 0.105f
C6 a_n545_n465# a_n287_n465# 0.255f
C7 a_n487_n553# a_n229_n553# 0.104f
C8 a_29_n553# a_n229_n553# 0.104f
C9 a_229_n465# a_n29_n465# 0.255f
C10 a_29_n553# a_n29_n465# 0.105f
C11 a_n487_n553# a_n545_n465# 0.105f
C12 a_229_n465# a_487_n465# 0.255f
C13 a_n229_n553# a_n287_n465# 0.105f
C14 a_229_n465# a_29_n553# 0.105f
C15 a_487_n465# a_n679_n687# 0.517f
C16 a_229_n465# a_n679_n687# 0.157f
C17 a_n29_n465# a_n679_n687# 0.157f
C18 a_n287_n465# a_n679_n687# 0.157f
C19 a_n545_n465# a_n679_n687# 0.517f
C20 a_287_n553# a_n679_n687# 0.651f
C21 a_29_n553# a_n679_n687# 0.588f
C22 a_n229_n553# a_n679_n687# 0.588f
C23 a_n487_n553# a_n679_n687# 0.651f
.ends

.subckt sky130_fd_pr__nfet_g5v0d10v5_YPGNM4 a_545_n528# a_n545_n440# a_1577_n528#
+ a_1003_n440# a_n29_n440# a_29_n528# a_n1777_n528# a_487_n440# a_n745_n528# a_n1835_n440#
+ a_803_n528# a_n803_n440# a_1519_n440# a_1261_n440# a_n229_n528# a_n1319_n440# a_287_n528#
+ a_n1003_n528# a_n287_n440# a_n1061_n440# a_n1969_n662# a_745_n440# a_1319_n528#
+ a_1061_n528# a_1777_n440# a_n1519_n528# a_229_n440# a_n487_n528# a_n1261_n528# a_n1577_n440#
X0 a_1777_n440# a_1577_n528# a_1519_n440# a_n1969_n662# sky130_fd_pr__nfet_g5v0d10v5 ad=1.28 pd=9.38 as=0.638 ps=4.69 w=4.4 l=1
X1 a_1261_n440# a_1061_n528# a_1003_n440# a_n1969_n662# sky130_fd_pr__nfet_g5v0d10v5 ad=0.638 pd=4.69 as=0.638 ps=4.69 w=4.4 l=1
X2 a_229_n440# a_29_n528# a_n29_n440# a_n1969_n662# sky130_fd_pr__nfet_g5v0d10v5 ad=0.638 pd=4.69 as=0.638 ps=4.69 w=4.4 l=1
X3 a_n29_n440# a_n229_n528# a_n287_n440# a_n1969_n662# sky130_fd_pr__nfet_g5v0d10v5 ad=0.638 pd=4.69 as=0.638 ps=4.69 w=4.4 l=1
X4 a_n1319_n440# a_n1519_n528# a_n1577_n440# a_n1969_n662# sky130_fd_pr__nfet_g5v0d10v5 ad=0.638 pd=4.69 as=0.638 ps=4.69 w=4.4 l=1
X5 a_n545_n440# a_n745_n528# a_n803_n440# a_n1969_n662# sky130_fd_pr__nfet_g5v0d10v5 ad=0.638 pd=4.69 as=0.638 ps=4.69 w=4.4 l=1
X6 a_n803_n440# a_n1003_n528# a_n1061_n440# a_n1969_n662# sky130_fd_pr__nfet_g5v0d10v5 ad=0.638 pd=4.69 as=0.638 ps=4.69 w=4.4 l=1
X7 a_n287_n440# a_n487_n528# a_n545_n440# a_n1969_n662# sky130_fd_pr__nfet_g5v0d10v5 ad=0.638 pd=4.69 as=0.638 ps=4.69 w=4.4 l=1
X8 a_n1577_n440# a_n1777_n528# a_n1835_n440# a_n1969_n662# sky130_fd_pr__nfet_g5v0d10v5 ad=0.638 pd=4.69 as=1.28 ps=9.38 w=4.4 l=1
X9 a_1519_n440# a_1319_n528# a_1261_n440# a_n1969_n662# sky130_fd_pr__nfet_g5v0d10v5 ad=0.638 pd=4.69 as=0.638 ps=4.69 w=4.4 l=1
X10 a_n1061_n440# a_n1261_n528# a_n1319_n440# a_n1969_n662# sky130_fd_pr__nfet_g5v0d10v5 ad=0.638 pd=4.69 as=0.638 ps=4.69 w=4.4 l=1
X11 a_1003_n440# a_803_n528# a_745_n440# a_n1969_n662# sky130_fd_pr__nfet_g5v0d10v5 ad=0.638 pd=4.69 as=0.638 ps=4.69 w=4.4 l=1
X12 a_487_n440# a_287_n528# a_229_n440# a_n1969_n662# sky130_fd_pr__nfet_g5v0d10v5 ad=0.638 pd=4.69 as=0.638 ps=4.69 w=4.4 l=1
X13 a_745_n440# a_545_n528# a_487_n440# a_n1969_n662# sky130_fd_pr__nfet_g5v0d10v5 ad=0.638 pd=4.69 as=0.638 ps=4.69 w=4.4 l=1
C0 a_1519_n440# a_1261_n440# 0.241f
C1 a_745_n440# a_487_n440# 0.241f
C2 a_n745_n528# a_n1003_n528# 0.104f
C3 a_n803_n440# a_n1003_n528# 0.0995f
C4 a_n803_n440# a_n745_n528# 0.0995f
C5 a_n545_n440# a_n745_n528# 0.0995f
C6 a_1319_n528# a_1577_n528# 0.104f
C7 a_n803_n440# a_n545_n440# 0.241f
C8 a_803_n528# a_1061_n528# 0.104f
C9 a_287_n528# a_29_n528# 0.104f
C10 a_n229_n528# a_29_n528# 0.104f
C11 a_n1519_n528# a_n1319_n440# 0.0995f
C12 a_1319_n528# a_1519_n440# 0.0995f
C13 a_n229_n528# a_n287_n440# 0.0995f
C14 a_803_n528# a_1003_n440# 0.0995f
C15 a_n487_n528# a_n745_n528# 0.104f
C16 a_n1061_n440# a_n1003_n528# 0.0995f
C17 a_n545_n440# a_n487_n528# 0.0995f
C18 a_n1577_n440# a_n1519_n528# 0.0995f
C19 a_n803_n440# a_n1061_n440# 0.241f
C20 a_n1577_n440# a_n1777_n528# 0.0995f
C21 a_29_n528# a_n29_n440# 0.0995f
C22 a_n1577_n440# a_n1835_n440# 0.241f
C23 a_803_n528# a_545_n528# 0.104f
C24 a_n287_n440# a_n29_n440# 0.241f
C25 a_545_n528# a_487_n440# 0.0995f
C26 a_1319_n528# a_1261_n440# 0.0995f
C27 a_1061_n528# a_1261_n440# 0.0995f
C28 a_n1061_n440# a_n1319_n440# 0.241f
C29 a_n1261_n528# a_n1519_n528# 0.104f
C30 a_229_n440# a_487_n440# 0.241f
C31 a_n229_n528# a_n29_n440# 0.0995f
C32 a_1319_n528# a_1061_n528# 0.104f
C33 a_n1261_n528# a_n1003_n528# 0.104f
C34 a_n545_n440# a_n287_n440# 0.241f
C35 a_n1577_n440# a_n1319_n440# 0.241f
C36 a_229_n440# a_29_n528# 0.0995f
C37 a_1261_n440# a_1003_n440# 0.241f
C38 a_1519_n440# a_1577_n528# 0.0995f
C39 a_1003_n440# a_745_n440# 0.241f
C40 a_287_n528# a_545_n528# 0.104f
C41 a_1061_n528# a_1003_n440# 0.0995f
C42 a_229_n440# a_287_n528# 0.0995f
C43 a_745_n440# a_545_n528# 0.0995f
C44 a_n1261_n528# a_n1319_n440# 0.0995f
C45 a_n287_n440# a_n487_n528# 0.0995f
C46 a_n1777_n528# a_n1519_n528# 0.104f
C47 a_n1261_n528# a_n1061_n440# 0.0995f
C48 a_n229_n528# a_n487_n528# 0.104f
C49 a_n1777_n528# a_n1835_n440# 0.0995f
C50 a_1777_n440# a_1577_n528# 0.0995f
C51 a_1777_n440# a_1519_n440# 0.241f
C52 a_803_n528# a_745_n440# 0.0995f
C53 a_287_n528# a_487_n440# 0.0995f
C54 a_229_n440# a_n29_n440# 0.241f
C55 a_1777_n440# a_n1969_n662# 0.491f
C56 a_1519_n440# a_n1969_n662# 0.15f
C57 a_1261_n440# a_n1969_n662# 0.15f
C58 a_1003_n440# a_n1969_n662# 0.15f
C59 a_745_n440# a_n1969_n662# 0.15f
C60 a_487_n440# a_n1969_n662# 0.15f
C61 a_229_n440# a_n1969_n662# 0.15f
C62 a_n29_n440# a_n1969_n662# 0.15f
C63 a_n287_n440# a_n1969_n662# 0.15f
C64 a_n545_n440# a_n1969_n662# 0.15f
C65 a_n803_n440# a_n1969_n662# 0.15f
C66 a_n1061_n440# a_n1969_n662# 0.15f
C67 a_n1319_n440# a_n1969_n662# 0.15f
C68 a_n1577_n440# a_n1969_n662# 0.15f
C69 a_n1835_n440# a_n1969_n662# 0.491f
C70 a_1577_n528# a_n1969_n662# 0.65f
C71 a_1319_n528# a_n1969_n662# 0.587f
C72 a_1061_n528# a_n1969_n662# 0.587f
C73 a_803_n528# a_n1969_n662# 0.587f
C74 a_545_n528# a_n1969_n662# 0.587f
C75 a_287_n528# a_n1969_n662# 0.587f
C76 a_29_n528# a_n1969_n662# 0.587f
C77 a_n229_n528# a_n1969_n662# 0.587f
C78 a_n487_n528# a_n1969_n662# 0.587f
C79 a_n745_n528# a_n1969_n662# 0.587f
C80 a_n1003_n528# a_n1969_n662# 0.587f
C81 a_n1261_n528# a_n1969_n662# 0.587f
C82 a_n1519_n528# a_n1969_n662# 0.587f
C83 a_n1777_n528# a_n1969_n662# 0.65f
.ends

.subckt RB_array_20 VDD R1 D0 m1_2124_1470# m1_5470_410# m1_2651_1472# m1_3160_410#
+ m1_4060_410# D3 D1 R2 D4 D2 VSS m1_7940_410#
XXR1 VSS R2 m1_2651_1472# sky130_fd_pr__res_high_po_0p69_JKKHRG
XXR2 VSS R2 m1_2124_1470# sky130_fd_pr__res_high_po_0p69_JKKHRG
XXR3 R2 m1_3160_410# R2 VSS m1_3160_410# sky130_fd_pr__res_high_po_0p69_Z3RMRJ
XXR5 m1_5470_410# R2 R2 R2 m1_5470_410# R2 R2 m1_5470_410# R2 m1_5470_410# m1_5470_410#
+ m1_5470_410# m1_5470_410# R2 VSS R2 m1_5470_410# sky130_fd_pr__res_high_po_0p69_Z3RMR6
XXR4 R2 VSS m1_4060_410# R2 R2 m1_4060_410# m1_4060_410# m1_4060_410# R2 sky130_fd_pr__res_high_po_0p69_YMHKRJ
XXR6 m1_7940_410# R2 R2 R2 R2 m1_7940_410# m1_7940_410# m1_7940_410# R2 VSS R2 R2
+ m1_7940_410# R2 m1_7940_410# R2 R2 m1_7940_410# m1_7940_410# R2 R2 R2 m1_7940_410#
+ m1_7940_410# m1_7940_410# m1_7940_410# R2 R2 m1_7940_410# m1_7940_410# R2 m1_7940_410#
+ m1_7940_410# sky130_fd_pr__res_high_po_0p69_HBQF5Z
XXM6 D0 m1_2651_1472# VSS R1 sky130_fd_pr__nfet_g5v0d10v5_727CUP
XXM7 m1_3160_410# VSS D1 m1_3160_410# R1 D1 sky130_fd_pr__nfet_g5v0d10v5_VU5C5A
XXM9 m1_5470_410# R1 D3 D3 R1 m1_5470_410# D3 R1 D3 D3 D3 R1 m1_5470_410# m1_5470_410#
+ D3 VSS D3 m1_5470_410# sky130_fd_pr__nfet_g5v0d10v5_J97EKB
XXM8 D2 D2 R1 m1_4060_410# D2 m1_4060_410# m1_4060_410# VSS D2 R1 sky130_fd_pr__nfet_g5v0d10v5_S7E57E
XXM10 D4 R1 D4 R1 R1 D4 D4 R1 D4 m1_7940_410# D4 m1_7940_410# R1 m1_7940_410# D4 m1_7940_410#
+ D4 D4 m1_7940_410# R1 VSS m1_7940_410# D4 D4 m1_7940_410# D4 m1_7940_410# D4 D4
+ R1 sky130_fd_pr__nfet_g5v0d10v5_YPGNM4
XXM11 VDD m1_2124_1470# VSS R1 sky130_fd_pr__nfet_g5v0d10v5_727CUP
C0 D0 m1_4060_410# 7.28e-21
C1 D3 D0 0.0725f
C2 m1_2651_1472# m1_4060_410# 2.22e-21
C3 D3 m1_2651_1472# 0.0446f
C4 D3 VDD 0.0728f
C5 m1_5470_410# D4 1.37f
C6 D0 D2 0.0732f
C7 D4 m1_4060_410# 0.742f
C8 D3 D4 3.99f
C9 m1_2651_1472# D2 0.0483f
C10 D4 m1_7940_410# 8.65f
C11 VDD D2 0.0734f
C12 m1_5470_410# R1 0.379f
C13 R1 m1_4060_410# 0.226f
C14 D3 R1 4.08f
C15 m1_3160_410# m1_4060_410# 0.201f
C16 R1 m1_7940_410# 0.29f
C17 D4 D2 0.308f
C18 D3 m1_3160_410# 0.12f
C19 R1 D2 2.15f
C20 m1_3160_410# D2 0.163f
C21 D0 m1_2651_1472# 0.449f
C22 D0 VDD 0.332f
C23 D4 D0 0.0964f
C24 D3 m1_2124_1470# 0.0433f
C25 D4 m1_2651_1472# 0.0516f
C26 D4 VDD 0.0966f
C27 D1 m1_4060_410# 1.86e-19
C28 R1 D0 0.619f
C29 D3 D1 0.145f
C30 m1_3160_410# D0 0.00189f
C31 m1_2124_1470# D2 0.0469f
C32 R1 m1_2651_1472# -0.107f
C33 R1 VDD 0.551f
C34 m1_3160_410# m1_2651_1472# 0.19f
C35 m1_3160_410# VDD 4.48e-19
C36 D1 D2 1.31f
C37 R1 D4 7.57f
C38 m1_3160_410# D4 0.458f
C39 m1_3160_410# R1 0.177f
C40 D0 m1_2124_1470# 0.126f
C41 m1_2124_1470# m1_2651_1472# 0.104f
C42 m1_2124_1470# VDD 0.494f
C43 D1 D0 0.731f
C44 D1 m1_2651_1472# 0.114f
C45 D1 VDD 0.0754f
C46 D4 m1_2124_1470# 0.0503f
C47 D4 D1 0.154f
C48 R1 m1_2124_1470# 0.0621f
C49 m1_3160_410# m1_2124_1470# 1.43e-19
C50 R1 D1 1.16f
C51 m1_3160_410# D1 1.09f
C52 m1_5470_410# m1_4060_410# 0.176f
C53 D3 m1_5470_410# 3.93f
C54 m1_5470_410# m1_7940_410# 0.197f
C55 D3 m1_4060_410# 0.2f
C56 D3 m1_7940_410# 5.93e-19
C57 m1_5470_410# D2 5.82e-19
C58 D2 m1_4060_410# 2.08f
C59 D3 D2 2.27f
C60 D1 m1_2124_1470# 0.0674f
C61 R1 VSS 4.54f
C62 VDD VSS 0.914f
C63 m1_7940_410# VSS 7.18f
C64 D4 VSS 8.99f
C65 D2 VSS 2.7f
C66 D3 VSS 5.24f
C67 D1 VSS 1.48f
C68 D0 VSS 0.884f
C69 m1_4060_410# VSS 3.17f
C70 m1_5470_410# VSS 4.68f
C71 m1_3160_410# VSS 2.43f
C72 R2 VSS 15.3f
C73 m1_2124_1470# VSS 1.55f
C74 m1_2651_1472# VSS 1.58f
.ends

.subckt sky130_fd_pr__res_high_po_0p69_T8KQH6 a_n199_n866# a_n69_n736# a_n69_304#
X0 a_n69_304# a_n69_n736# a_n199_n866# sky130_fd_pr__res_high_po_0p69 l=3.04
C0 a_n69_n736# a_n69_304# 0.0134f
C1 a_n69_n736# a_n199_n866# 0.659f
C2 a_n69_304# a_n199_n866# 0.659f
.ends

.subckt sky130_fd_pr__pfet_g5v0d10v5_K8DQNF a_n29_n1536# a_229_n1536# a_n229_n1562#
+ w_n487_n1762# a_n287_n1536# a_29_n1562# VSUBS
X0 a_n29_n1536# a_n229_n1562# a_n287_n1536# w_n487_n1762# sky130_fd_pr__pfet_g5v0d10v5 ad=2.17 pd=15.3 as=4.35 ps=30.6 w=15 l=1
X1 a_229_n1536# a_29_n1562# a_n29_n1536# w_n487_n1762# sky130_fd_pr__pfet_g5v0d10v5 ad=4.35 pd=30.6 as=2.17 ps=15.3 w=15 l=1
C0 a_29_n1562# w_n487_n1762# 0.257f
C1 a_n229_n1562# w_n487_n1762# 0.257f
C2 a_n29_n1536# a_n287_n1536# 0.82f
C3 w_n487_n1762# a_229_n1536# 0.868f
C4 a_n29_n1536# w_n487_n1762# 0.023f
C5 a_n229_n1562# a_29_n1562# 0.0619f
C6 a_29_n1562# a_229_n1536# 0.326f
C7 a_29_n1562# a_n29_n1536# 0.326f
C8 a_n229_n1562# a_n29_n1536# 0.326f
C9 a_n29_n1536# a_229_n1536# 0.82f
C10 a_n287_n1536# w_n487_n1762# 0.868f
C11 a_n229_n1562# a_n287_n1536# 0.326f
C12 a_229_n1536# VSUBS 0.733f
C13 a_n29_n1536# VSUBS 0.418f
C14 a_n287_n1536# VSUBS 0.733f
C15 a_29_n1562# VSUBS 0.228f
C16 a_n229_n1562# VSUBS 0.228f
C17 w_n487_n1762# VSUBS 12.4f
.ends

.subckt sky130_fd_pr__nfet_g5v0d10v5_VYCZE8 a_100_n1681# a_n292_n1841# a_n100_n1707#
+ a_n158_n1681#
X0 a_100_n1681# a_n100_n1707# a_n158_n1681# a_n292_n1841# sky130_fd_pr__nfet_g5v0d10v5 ad=4.78 pd=33.6 as=4.78 ps=33.6 w=16.5 l=1
C0 a_100_n1681# a_n100_n1707# 0.358f
C1 a_n158_n1681# a_n100_n1707# 0.358f
C2 a_n158_n1681# a_100_n1681# 0.901f
C3 a_100_n1681# a_n292_n1841# 1.75f
C4 a_n158_n1681# a_n292_n1841# 1.75f
C5 a_n100_n1707# a_n292_n1841# 0.513f
.ends

.subckt sky130_fd_pr__nfet_g5v0d10v5_F3SB2X a_n100_n1632# a_100_n1544# a_n292_n1766#
+ a_n158_n1544#
X0 a_100_n1544# a_n100_n1632# a_n158_n1544# a_n292_n1766# sky130_fd_pr__nfet_g5v0d10v5 ad=4.48 pd=31.5 as=4.48 ps=31.5 w=15.4 l=1
C0 a_100_n1544# a_n100_n1632# 0.335f
C1 a_n158_n1544# a_n100_n1632# 0.335f
C2 a_n158_n1544# a_100_n1544# 0.844f
C3 a_100_n1544# a_n292_n1766# 1.64f
C4 a_n158_n1544# a_n292_n1766# 1.64f
C5 a_n100_n1632# a_n292_n1766# 0.743f
.ends

.subckt sky130_fd_pr__nfet_g5v0d10v5_2HXNYY a_n158_n1900# a_100_n1900# a_n292_n2122#
+ a_n100_n1988#
X0 a_100_n1900# a_n100_n1988# a_n158_n1900# a_n292_n2122# sky130_fd_pr__nfet_g5v0d10v5 ad=5.51 pd=38.6 as=5.51 ps=38.6 w=19 l=1
C0 a_100_n1900# a_n100_n1988# 0.411f
C1 a_n158_n1900# a_n100_n1988# 0.411f
C2 a_n158_n1900# a_100_n1900# 1.04f
C3 a_100_n1900# a_n292_n2122# 2.01f
C4 a_n158_n1900# a_n292_n2122# 2.01f
C5 a_n100_n1988# a_n292_n2122# 0.743f
.ends

.subckt sky130_fd_pr__pfet_g5v0d10v5_24QKAW a_29_n1997# a_n487_n1997# a_487_n1900#
+ a_n287_n1900# a_n229_n1997# a_n545_n1900# a_n29_n1900# a_287_n1997# w_n745_n2197#
+ a_229_n1900# VSUBS
X0 a_487_n1900# a_287_n1997# a_229_n1900# w_n745_n2197# sky130_fd_pr__pfet_g5v0d10v5 ad=5.51 pd=38.6 as=2.76 ps=19.3 w=19 l=1
X1 a_n287_n1900# a_n487_n1997# a_n545_n1900# w_n745_n2197# sky130_fd_pr__pfet_g5v0d10v5 ad=2.76 pd=19.3 as=5.51 ps=38.6 w=19 l=1
X2 a_n29_n1900# a_n229_n1997# a_n287_n1900# w_n745_n2197# sky130_fd_pr__pfet_g5v0d10v5 ad=2.76 pd=19.3 as=2.76 ps=19.3 w=19 l=1
X3 a_229_n1900# a_29_n1997# a_n29_n1900# w_n745_n2197# sky130_fd_pr__pfet_g5v0d10v5 ad=2.76 pd=19.3 as=2.76 ps=19.3 w=19 l=1
C0 a_n229_n1997# a_n29_n1900# 0.411f
C1 a_n287_n1900# a_n229_n1997# 0.411f
C2 a_n287_n1900# a_n487_n1997# 0.411f
C3 a_n287_n1900# a_n545_n1900# 1.04f
C4 a_n229_n1997# w_n745_n2197# 0.343f
C5 a_n487_n1997# w_n745_n2197# 0.386f
C6 a_287_n1997# a_29_n1997# 0.109f
C7 w_n745_n2197# a_n545_n1900# 1.09f
C8 a_487_n1900# a_287_n1997# 0.411f
C9 a_287_n1997# w_n745_n2197# 0.386f
C10 a_n487_n1997# a_n229_n1997# 0.109f
C11 a_229_n1900# a_29_n1997# 0.411f
C12 a_n487_n1997# a_n545_n1900# 0.411f
C13 a_229_n1900# a_n29_n1900# 1.04f
C14 a_229_n1900# a_487_n1900# 1.04f
C15 a_229_n1900# w_n745_n2197# 0.022f
C16 a_29_n1997# a_n29_n1900# 0.411f
C17 a_229_n1900# a_287_n1997# 0.411f
C18 a_n287_n1900# a_n29_n1900# 1.04f
C19 a_29_n1997# w_n745_n2197# 0.343f
C20 a_n29_n1900# w_n745_n2197# 0.022f
C21 a_n287_n1900# w_n745_n2197# 0.022f
C22 a_487_n1900# w_n745_n2197# 1.09f
C23 a_n229_n1997# a_29_n1997# 0.109f
C24 a_487_n1900# VSUBS 0.925f
C25 a_229_n1900# VSUBS 0.527f
C26 a_n29_n1900# VSUBS 0.527f
C27 a_n287_n1900# VSUBS 0.527f
C28 a_n545_n1900# VSUBS 0.925f
C29 a_287_n1997# VSUBS 0.311f
C30 a_29_n1997# VSUBS 0.288f
C31 a_n229_n1997# VSUBS 0.288f
C32 a_n487_n1997# VSUBS 0.311f
C33 w_n745_n2197# VSUBS 22.5f
.ends

.subckt sky130_fd_pr__nfet_g5v0d10v5_LB7Y8R a_n100_n157# a_n158_n69# a_n292_n291#
+ a_100_n69#
X0 a_100_n69# a_n100_n157# a_n158_n69# a_n292_n291# sky130_fd_pr__nfet_g5v0d10v5 ad=0.2 pd=1.96 as=0.2 ps=1.96 w=0.69 l=1
C0 a_100_n69# a_n100_n157# 0.0202f
C1 a_n100_n157# a_n158_n69# 0.0202f
C2 a_100_n69# a_n158_n69# 0.0387f
C3 a_100_n69# a_n292_n291# 0.105f
C4 a_n158_n69# a_n292_n291# 0.105f
C5 a_n100_n157# a_n292_n291# 0.683f
.ends

.subckt sky130_fd_pr__cap_mim_m3_1_8DB3RK m3_n876_n730# c1_n836_n690# VSUBS
X0 c1_n836_n690# m3_n876_n730# sky130_fd_pr__cap_mim_m3_1 l=6.9 w=6.9
C0 m3_n876_n730# c1_n836_n690# 4.73f
C1 c1_n836_n690# VSUBS 0.686f
C2 m3_n876_n730# VSUBS 2.42f
.ends

.subckt opamp V2 VOUT a_4864_8007# V1 m1_4128_540# VDD m1_5284_1188# m1_4306_994#
+ m3_5211_1261# VSS m1_5053_7611#
XXR3 VSS m1_4128_540# VOUT sky130_fd_pr__res_high_po_0p69_T8KQH6
XXM1 m1_5053_7611# VDD a_4864_8007# VDD VDD a_4864_8007# VSS sky130_fd_pr__pfet_g5v0d10v5_K8DQNF
XXM2 m1_4306_994# VSS V2 a_4864_8007# sky130_fd_pr__nfet_g5v0d10v5_VYCZE8
XXM3 a_4864_8007# VDD a_4864_8007# VDD VDD a_4864_8007# VSS sky130_fd_pr__pfet_g5v0d10v5_K8DQNF
XXM4 m1_5053_7611# VSS V1 m1_4306_994# sky130_fd_pr__nfet_g5v0d10v5_VYCZE8
XXM5 m1_5284_1188# VSS VSS m1_4306_994# sky130_fd_pr__nfet_g5v0d10v5_F3SB2X
XXM6 VSS VOUT VSS m1_5284_1188# sky130_fd_pr__nfet_g5v0d10v5_2HXNYY
XXM7 m1_5284_1188# m1_5284_1188# VSS VSS sky130_fd_pr__nfet_g5v0d10v5_F3SB2X
XXM8 m1_5053_7611# m1_5053_7611# VDD VOUT m1_5053_7611# VDD VDD m1_5053_7611# VDD
+ VOUT VSS sky130_fd_pr__pfet_g5v0d10v5_24QKAW
XXM9 VDD VDD VSS m1_5284_1188# sky130_fd_pr__nfet_g5v0d10v5_LB7Y8R
XXC1 m1_5053_7611# m1_4128_540# VSS sky130_fd_pr__cap_mim_m3_1_8DB3RK
C0 V2 V1 0.16f
C1 m1_5284_1188# V1 0.00363f
C2 a_4864_8007# V2 0.263f
C3 a_4864_8007# m1_5284_1188# 0.00623f
C4 m1_5053_7611# V2 4.01e-19
C5 m1_5284_1188# m1_5053_7611# 0.0361f
C6 m3_5211_1261# m1_4306_994# 0.771f
C7 m1_4128_540# V2 0.179f
C8 m1_4128_540# m1_5284_1188# 0.031f
C9 VDD V2 0.00314f
C10 m1_5284_1188# VDD 1.67f
C11 VOUT m1_5284_1188# 2.28f
C12 a_4864_8007# V1 0.283f
C13 m1_5053_7611# V1 0.143f
C14 m1_4128_540# V1 0.088f
C15 a_4864_8007# m1_5053_7611# 1.78f
C16 VDD V1 0.275f
C17 m1_4306_994# V2 0.213f
C18 m1_5284_1188# m1_4306_994# 2.09f
C19 m3_5211_1261# V2 0.0767f
C20 m3_5211_1261# m1_5284_1188# 0.446f
C21 a_4864_8007# m1_4128_540# 0.503f
C22 VOUT V1 2.75e-19
C23 m1_4128_540# m1_5053_7611# 0.115f
C24 a_4864_8007# VDD 1.96f
C25 VDD m1_5053_7611# 10.4f
C26 a_4864_8007# VOUT 0.00842f
C27 VOUT m1_5053_7611# 7.29f
C28 m1_4128_540# VDD 0.376f
C29 VOUT m1_4128_540# 0.00888f
C30 m1_4306_994# V1 0.399f
C31 m3_5211_1261# V1 0.14f
C32 VOUT VDD -1.29f
C33 a_4864_8007# m1_4306_994# 0.127f