* NGSPICE file created from sky130_hcmus_ip__instramp.ext - technology: sky130A

.subckt sky130_hcmus_ip__instramp AVOUT2 D5 V2 ibias G D0 D6 D2 D8 VSS AVOUT1 VOUT
+ V1 D1 D4 D3 ena D7 DVDD D9 VDD DVSS
X0 x6.V1.t40 x9.V2.t27 VSS.t160 sky130_fd_pr__res_high_po_0p69 l=12.22
X1 ia_opamp_0.V2.t37 a_1031_764.t4 VDD.t233 VDD.t232 sky130_fd_pr__pfet_g5v0d10v5 ad=2.755 pd=19.29 as=2.755 ps=19.29 w=19 l=1
X2 a_n2577_n5175# a_n2603_n5122# DVSS.t131 DVSS.t126 sky130_fd_pr__nfet_g5v0d10v5 ad=0.21 pd=1.78 as=0.21 ps=1.78 w=1.5 l=0.5
X3 x6.V1.t18 D93v3.t2 a_16261_n9984.t27 VSS.t81 sky130_fd_pr__nfet_g5v0d10v5 ad=0.638 pd=4.69 as=0.638 ps=4.69 w=4.4 l=1
X4 VOUT.t33 a_16951_764.t4 VDD.t34 VDD.t33 sky130_fd_pr__pfet_g5v0d10v5 ad=2.755 pd=19.29 as=2.755 ps=19.29 w=19 l=1
X5 DVDD.t37 a_n2559_13399# a_n2603_12350# DVDD.t36 sky130_fd_pr__pfet_01v8_hvt ad=0.1176 pd=1.12 as=0.2478 ps=2.27 w=0.84 l=0.15
X6 x6.V1.t79 x9.V2.t57 VSS.t199 sky130_fd_pr__res_high_po_0p69 l=12.22
X7 x3.R1.t79 D93v3.t3 a_16261_n4916.t27 VSS.t81 sky130_fd_pr__nfet_g5v0d10v5 ad=0.638 pd=4.69 as=0.638 ps=4.69 w=4.4 l=1
X8 DVSS.t214 a_n2559_3415# a_n2121_2781# DVSS.t213 sky130_fd_pr__nfet_g5v0d10v5 ad=0.21 pd=1.78 as=0.21 ps=1.78 w=1.5 l=0.5
X9 x5.V2.t0 x4.V2.t0 VSS.t0 sky130_fd_pr__res_high_po_0p69 l=12.22
X10 DVSS.t87 a_n2559_n1577# a_n2121_n2211# DVSS.t86 sky130_fd_pr__nfet_g5v0d10v5 ad=0.21 pd=1.78 as=0.3975 ps=3.53 w=1.5 l=0.5
X11 a_6164_n9984.t17 D43v3.t2 x5.V2.t47 VSS.t18 sky130_fd_pr__nfet_g5v0d10v5 ad=0.638 pd=4.69 as=0.638 ps=4.69 w=4.4 l=1
X12 AVOUT2.t29 a_6164_n9984.t25 VSS.t236 sky130_fd_pr__res_high_po_0p69 l=12.22
X13 x5.V2.t26 D33v3.t2 a_3720_n9984.t10 VSS.t124 sky130_fd_pr__nfet_g5v0d10v5 ad=0.6351 pd=4.67 as=1.2702 ps=9.34 w=4.38 l=1
X14 x6.V1.t80 x9.V2.t58 VSS.t0 sky130_fd_pr__res_high_po_0p69 l=12.22
X15 a_6164_n4916.t18 D43v3.t3 x4.V2.t5 VSS.t18 sky130_fd_pr__nfet_g5v0d10v5 ad=0.638 pd=4.69 as=0.638 ps=4.69 w=4.4 l=1
X16 AVOUT1.t32 a_6164_n4916.t27 VSS.t236 sky130_fd_pr__res_high_po_0p69 l=12.22
X17 x6.V1.t41 x9.V2.t28 VSS.t158 sky130_fd_pr__res_high_po_0p69 l=12.22
X18 x6.V1.t83 D73v3.t2 a_12405_n9984.t5 VSS.t75 sky130_fd_pr__nfet_g5v0d10v5 ad=0.67425 pd=4.94 as=1.3485 ps=9.88 w=4.65 l=1
X19 x4.V2.t60 D33v3.t3 a_3720_n4916.t9 VSS.t124 sky130_fd_pr__nfet_g5v0d10v5 ad=0.6351 pd=4.67 as=1.2702 ps=9.34 w=4.38 l=1
X20 x6.V1.t78 x9.V2.t56 VSS.t107 sky130_fd_pr__res_high_po_0p69 l=12.22
X21 x3.R1.t80 x8.V2.t57 VSS.t13 sky130_fd_pr__res_high_po_0p69 l=12.22
X22 x3.R1.t15 D73v3.t3 a_12405_n4916.t6 VSS.t75 sky130_fd_pr__nfet_g5v0d10v5 ad=0.67425 pd=4.94 as=1.3485 ps=9.88 w=4.65 l=1
X23 a_n2121_n4707# a_n2577_n5175# VDD.t110 VDD.t109 sky130_fd_pr__pfet_g5v0d10v5 ad=0.2142 pd=1.99 as=0.2142 ps=1.99 w=0.42 l=1
X24 DVDD.t25 a_n2559_15895# a_n2603_14846# DVDD.t24 sky130_fd_pr__pfet_01v8_hvt ad=0.1176 pd=1.12 as=0.2478 ps=2.27 w=0.84 l=0.15
X25 x3.R1.t38 x8.V2.t37 VSS.t30 sky130_fd_pr__res_high_po_0p69 l=12.22
X26 ia_opamp_0.V2.t21 a_16261_n9984.t11 VSS.t148 sky130_fd_pr__res_high_po_0p69 l=12.22
X27 a_230_281.t0 ia_opamp_0.V2.t12 VSS.t139 sky130_fd_pr__res_high_po_0p69 l=3.2
X28 a_16951_764.t0 a_16157_764.t5 VDD.t3 VDD.t2 sky130_fd_pr__pfet_g5v0d10v5 ad=2.175 pd=15.29 as=4.35 ps=30.58 w=15 l=1
X29 a_6605_764.t3 a_6605_764.t2 VDD.t50 VDD.t49 sky130_fd_pr__pfet_g5v0d10v5 ad=2.175 pd=15.29 as=4.35 ps=30.58 w=15 l=1
X30 a_n2121_285# a_n2577_n183# VDD.t54 VDD.t53 sky130_fd_pr__pfet_g5v0d10v5 ad=0.2142 pd=1.99 as=0.2142 ps=1.99 w=0.42 l=1
X31 DVSS.t93 a_n2603_n7618# a_n2577_n7671# DVSS.t88 sky130_fd_pr__nfet_g5v0d10v5 ad=0.21 pd=1.78 as=0.21 ps=1.78 w=1.5 l=0.5
X32 VOUT.t13 a_16261_n4916.t4 VSS.t148 sky130_fd_pr__res_high_po_0p69 l=12.22
X33 a_n2121_5277# a_n2559_5911# DVSS.t68 DVSS.t67 sky130_fd_pr__nfet_g5v0d10v5 ad=0.21 pd=1.78 as=0.21 ps=1.78 w=1.5 l=0.5
X34 ia_opamp_0.V2.t20 a_13817_n9984.t4 VSS.t187 sky130_fd_pr__res_high_po_0p69 l=12.22
X35 a_n1825_n338# a_n2121_285# VDD.t57 VDD.t8 sky130_fd_pr__pfet_g5v0d10v5 ad=0.3975 pd=3.53 as=0.24375 ps=1.825 w=1.5 l=0.5
X36 a_n2577_14793# a_n2121_15261# VDD.t194 VDD.t193 sky130_fd_pr__pfet_g5v0d10v5 ad=0.1365 pd=1.49 as=0.1113 ps=1.37 w=0.42 l=1
X37 DVSS.t85 a_n2559_n1577# a_n2603_n2626# DVSS.t84 sky130_fd_pr__nfet_01v8 ad=0.1176 pd=1.12 as=0.2478 ps=2.27 w=0.84 l=0.15
X38 x3.R1.t90 x8.V2.t67 VSS.t98 sky130_fd_pr__res_high_po_0p69 l=12.22
X39 VOUT.t37 a_13817_n4916.t15 VSS.t187 sky130_fd_pr__res_high_po_0p69 l=12.22
X40 DVSS.t111 D9.t0 sky130_fd_pr__diode_pw2nd_11v0 perim=3.16e+06 area=6.072e+11
X41 VDD.t156 DVSS.t307 VDD.t155 VDD.t154 sky130_fd_pr__pfet_g5v0d10v5 ad=0.265 pd=2.53 as=0 ps=0 w=1 l=1
X42 x3.R1.t86 x8.V2.t63 VSS.t177 sky130_fd_pr__res_high_po_0p69 l=12.22
X43 a_11509_n9984# D63v3.t2 x6.V1.t82 VSS.t220 sky130_fd_pr__nfet_g5v0d10v5 ad=1.4123 pd=10.32 as=0.70615 ps=5.16 w=4.87 l=1
X44 x6.V1.t57 x9.V2.t42 VSS.t13 sky130_fd_pr__res_high_po_0p69 l=12.22
X45 x5.V2.t6 x4.V2.t7 VSS.t29 sky130_fd_pr__res_high_po_0p69 l=12.22
X46 a_11509_n4916# D63v3.t3 x3.R1.t55 VSS.t220 sky130_fd_pr__nfet_g5v0d10v5 ad=1.4123 pd=10.32 as=0.70615 ps=5.16 w=4.87 l=1
X47 x5.V2.t38 x4.V2.t38 VSS.t94 sky130_fd_pr__res_high_po_0p69 l=12.22
X48 DVSS.t27 a_n2603_n10114# a_n2577_n10167# DVSS.t22 sky130_fd_pr__nfet_g5v0d10v5 ad=0.21 pd=1.78 as=0.21 ps=1.78 w=1.5 l=0.5
X49 x6.V1.t8 x9.V2.t2 VSS.t30 sky130_fd_pr__res_high_po_0p69 l=12.22
X50 a_16150_281.t1 a_16951_764.t1 sky130_fd_pr__cap_mim_m3_1 l=6.9 w=6.9
X51 a_n2121_285# a_n2559_919# DVSS.t268 DVSS.t267 sky130_fd_pr__nfet_g5v0d10v5 ad=0.21 pd=1.78 as=0.21 ps=1.78 w=1.5 l=0.5
X52 x5.V2.t5 D43v3.t4 a_6164_n9984.t16 VSS.t19 sky130_fd_pr__nfet_g5v0d10v5 ad=0.638 pd=4.69 as=0.638 ps=4.69 w=4.4 l=1
X53 x3.R1.t83 x8.V2.t60 VSS.t14 sky130_fd_pr__res_high_po_0p69 l=12.22
X54 AVOUT2.t11 a_1412_n9984# VSS.t41 sky130_fd_pr__res_high_po_0p69 l=12.22
X55 x4.V2.t6 D43v3.t5 a_6164_n4916.t17 VSS.t19 sky130_fd_pr__nfet_g5v0d10v5 ad=0.638 pd=4.69 as=0.638 ps=4.69 w=4.4 l=1
X56 AVOUT1.t5 a_1412_n4916# VSS.t41 sky130_fd_pr__res_high_po_0p69 l=12.22
X57 a_12973_764.t3 a_12973_764.t2 VDD.t134 VDD.t133 sky130_fd_pr__pfet_g5v0d10v5 ad=2.175 pd=15.29 as=4.35 ps=30.58 w=15 l=1
X58 x6.V1.t24 x9.V2.t12 VSS.t98 sky130_fd_pr__res_high_po_0p69 l=12.22
X59 x5.V2.t80 x4.V2.t81 VSS.t91 sky130_fd_pr__res_high_po_0p69 l=12.22
X60 ia_opamp_0.V2.t15 a_11509_n9984# VSS.t99 sky130_fd_pr__res_high_po_0p69 l=12.22
X61 AVOUT2.t18 a_6164_n9984.t21 VSS.t31 sky130_fd_pr__res_high_po_0p69 l=12.22
X62 a_n2121_n9699# a_n2577_n10167# VDD.t11 VDD.t10 sky130_fd_pr__pfet_g5v0d10v5 ad=0.2142 pd=1.99 as=0.2142 ps=1.99 w=0.42 l=1
X63 x5.V2.t51 x4.V2.t52 VSS.t44 sky130_fd_pr__res_high_po_0p69 l=12.22
X64 VDD.t165 a_n1825_12142# D03v3.t1 VDD.t96 sky130_fd_pr__pfet_g5v0d10v5 ad=0.24375 pd=1.825 as=0.3975 ps=3.53 w=1.5 l=0.5
X65 x6.V1.t48 x9.V2.t35 VSS.t177 sky130_fd_pr__res_high_po_0p69 l=12.22
X66 VOUT.t4 a_11509_n4916# VSS.t99 sky130_fd_pr__res_high_po_0p69 l=12.22
X67 AVOUT1.t2 a_6164_n4916.t2 VSS.t31 sky130_fd_pr__res_high_po_0p69 l=12.22
X68 x5.V2.t81 x4.V2.t82 VSS.t24 sky130_fd_pr__res_high_po_0p69 l=12.22
X69 ia_opamp_0.V2.t28 a_10959_n8604# VSS.t149 sky130_fd_pr__res_high_po_0p69 l=12.22
X70 VOUT.t14 a_10959_n3536# VSS.t149 sky130_fd_pr__res_high_po_0p69 l=12.22
X71 a_n2577_2313# a_n2603_2366# DVSS.t242 DVSS.t237 sky130_fd_pr__nfet_g5v0d10v5 ad=0.21 pd=1.78 as=0.21 ps=1.78 w=1.5 l=0.5
X72 VDD.t118 a_10583_764.t4 x8.V2.t34 VDD.t117 sky130_fd_pr__pfet_g5v0d10v5 ad=5.51 pd=38.58 as=2.755 ps=19.29 w=19 l=1
X73 a_204_12823.t4 a_204_12823.t3 VDD.t130 VDD.t129 sky130_fd_pr__pfet_g5v0d10v5 ad=0.29 pd=2.58 as=0.145 ps=1.29 w=1 l=1
X74 a_n2577_12297# a_n2603_12350# DVSS.t201 DVSS.t196 sky130_fd_pr__nfet_g5v0d10v5 ad=0.21 pd=1.78 as=0.21 ps=1.78 w=1.5 l=0.5
X75 x6.V1.t85 x9.V2.t61 VSS.t14 sky130_fd_pr__res_high_po_0p69 l=12.22
X76 x5.V2.t73 x4.V2.t74 VSS.t39 sky130_fd_pr__res_high_po_0p69 l=12.22
X77 x5.V2.t48 x4.V2.t49 VSS.t178 sky130_fd_pr__res_high_po_0p69 l=12.22
X78 DVDD.t7 a_n2559_8407# a_n2603_7358# DVDD.t6 sky130_fd_pr__pfet_01v8_hvt ad=0.1176 pd=1.12 as=0.2478 ps=2.27 w=0.84 l=0.15
X79 x3.R1.t39 x8.V2.t38 VSS.t150 sky130_fd_pr__res_high_po_0p69 l=12.22
X80 DVSS.t266 a_n2559_919# a_n2121_285# DVSS.t265 sky130_fd_pr__nfet_g5v0d10v5 ad=0.21 pd=1.78 as=0.3975 ps=3.53 w=1.5 l=0.5
X81 a_n2121_n7203# a_n2577_n7671# VDD.t93 VDD.t92 sky130_fd_pr__pfet_g5v0d10v5 ad=0.2142 pd=1.99 as=0.2142 ps=1.99 w=0.42 l=1
X82 a_3720_n9984.t9 D33v3.t4 x5.V2.t58 VSS.t194 sky130_fd_pr__nfet_g5v0d10v5 ad=1.2702 pd=9.34 as=0.6351 ps=4.67 w=4.38 l=1
X83 a_9789_764.t4 a_9789_764.t3 VDD.t30 VDD.t29 sky130_fd_pr__pfet_g5v0d10v5 ad=2.175 pd=15.29 as=4.35 ps=30.58 w=15 l=1
X84 ia_opamp_0.ibias.t1 ia_opamp_0.ibias.t0 VSS.t74 VSS.t73 sky130_fd_pr__nfet_g5v0d10v5 ad=4.4776 pd=31.46 as=4.4776 ps=31.46 w=15.44 l=1
X85 DVSS.t151 a_n2603_9854# a_n2577_9801# DVSS.t146 sky130_fd_pr__nfet_g5v0d10v5 ad=0.21 pd=1.78 as=0.21 ps=1.78 w=1.5 l=0.5
X86 a_3720_n4916.t8 D33v3.t5 x4.V2.t61 VSS.t194 sky130_fd_pr__nfet_g5v0d10v5 ad=1.2702 pd=9.34 as=0.6351 ps=4.67 w=4.38 l=1
X87 x3.R1.t82 x8.V2.t59 VSS.t100 sky130_fd_pr__res_high_po_0p69 l=12.22
X88 a_n2121_n7203# a_n2559_n6569# DVSS.t105 DVSS.t104 sky130_fd_pr__nfet_g5v0d10v5 ad=0.21 pd=1.78 as=0.21 ps=1.78 w=1.5 l=0.5
X89 VDD.t7 a_16157_764.t2 a_16157_764.t3 VDD.t6 sky130_fd_pr__pfet_g5v0d10v5 ad=4.35 pd=30.58 as=2.175 ps=15.29 w=15 l=1
X90 VDD.t16 a_9789_764.t5 a_10583_764.t0 VDD.t15 sky130_fd_pr__pfet_g5v0d10v5 ad=4.35 pd=30.58 as=2.175 ps=15.29 w=15 l=1
X91 a_n1825_2158# a_n2121_2781# VDD.t181 VDD.t113 sky130_fd_pr__pfet_g5v0d10v5 ad=0.3975 pd=3.53 as=0.24375 ps=1.825 w=1.5 l=0.5
X92 DVSS.t256 a_n2559_n4073# a_n2603_n5122# DVSS.t255 sky130_fd_pr__nfet_01v8 ad=0.1176 pd=1.12 as=0.2478 ps=2.27 w=0.84 l=0.15
X93 a_n2559_5911# D3.t0 DVSS.t70 DVSS.t69 sky130_fd_pr__nfet_01v8 ad=0.2478 pd=2.27 as=0.1176 ps=1.12 w=0.84 l=0.15
X94 a_n2559_919# D5.t0 DVSS.t34 DVSS.t33 sky130_fd_pr__nfet_01v8 ad=0.2478 pd=2.27 as=0.1176 ps=1.12 w=0.84 l=0.15
X95 AVOUT2.t19 a_862_n8604# VSS.t122 sky130_fd_pr__res_high_po_0p69 l=12.22
X96 DVSS.t304 VDD.t234 DVSS.t303 DVSS.t302 sky130_fd_pr__nfet_g5v0d10v5 ad=0.19875 pd=2.03 as=0 ps=0 w=0.75 l=1
X97 a_n2121_10269# a_n2559_10903# DVSS.t18 DVSS.t17 sky130_fd_pr__nfet_g5v0d10v5 ad=0.21 pd=1.78 as=0.21 ps=1.78 w=1.5 l=0.5
X98 AVOUT1.t30 a_862_n3536# VSS.t122 sky130_fd_pr__res_high_po_0p69 l=12.22
X99 x6.V1.t49 x9.V2.t36 VSS.t150 sky130_fd_pr__res_high_po_0p69 l=12.22
X100 VDD.t159 DVSS.t308 VDD.t158 VDD.t157 sky130_fd_pr__pfet_g5v0d10v5 ad=0.265 pd=2.53 as=0 ps=0 w=1 l=1
X101 DVSS.t200 a_n2603_12350# a_n2577_12297# DVSS.t196 sky130_fd_pr__nfet_g5v0d10v5 ad=0.21 pd=1.78 as=0.21 ps=1.78 w=1.5 l=0.5
X102 a_16157_764.t1 a_16157_764.t0 VDD.t5 VDD.t4 sky130_fd_pr__pfet_g5v0d10v5 ad=2.175 pd=15.29 as=4.35 ps=30.58 w=15 l=1
X103 AVOUT2.t34 a_3720_n9984.t14 VSS.t32 sky130_fd_pr__res_high_po_0p69 l=12.22
X104 x6.V1.t25 x9.V2.t13 VSS.t100 sky130_fd_pr__res_high_po_0p69 l=12.22
X105 DVDD.t23 a_n2559_n6569# a_n2603_n7618# DVDD.t22 sky130_fd_pr__pfet_01v8_hvt ad=0.1176 pd=1.12 as=0.2478 ps=2.27 w=0.84 l=0.15
X106 a_n2121_n9699# a_n2559_n9065# DVSS.t167 DVSS.t166 sky130_fd_pr__nfet_g5v0d10v5 ad=0.21 pd=1.78 as=0.21 ps=1.78 w=1.5 l=0.5
X107 x5.V2.t16 D33v3.t6 a_3720_n9984.t8 VSS.t86 sky130_fd_pr__nfet_g5v0d10v5 ad=0.6351 pd=4.67 as=0.6351 ps=4.67 w=4.38 l=1
X108 AVOUT1.t3 a_3720_n4916.t0 VSS.t32 sky130_fd_pr__res_high_po_0p69 l=12.22
X109 DVSS.t165 a_n2559_n9065# a_n2121_n9699# DVSS.t164 sky130_fd_pr__nfet_g5v0d10v5 ad=0.21 pd=1.78 as=0.21 ps=1.78 w=1.5 l=0.5
X110 x3.R1.t22 x8.V2.t18 VSS.t116 sky130_fd_pr__res_high_po_0p69 l=12.22
X111 DVSS.t191 a_n1825_12142# D03v3.t0 DVSS.t190 sky130_fd_pr__nfet_g5v0d10v5 ad=0.121875 pd=1.075 as=0.19875 ps=2.03 w=0.75 l=0.5
X112 a_6164_n9984.t15 D43v3.t6 x5.V2.t83 VSS.t244 sky130_fd_pr__nfet_g5v0d10v5 ad=0.638 pd=4.69 as=0.638 ps=4.69 w=4.4 l=1
X113 x4.V2.t17 D33v3.t7 a_3720_n4916.t7 VSS.t86 sky130_fd_pr__nfet_g5v0d10v5 ad=0.6351 pd=4.67 as=0.6351 ps=4.67 w=4.38 l=1
X114 a_n2559_3415# D4.t0 DVSS.t49 DVSS.t48 sky130_fd_pr__nfet_01v8 ad=0.2478 pd=2.27 as=0.1176 ps=1.12 w=0.84 l=0.15
X115 DVSS.t301 VDD.t235 DVSS.t300 DVSS.t299 sky130_fd_pr__nfet_g5v0d10v5 ad=0.19875 pd=2.03 as=0 ps=0 w=0.75 l=1
X116 x3.R1.t41 x8.V2.t40 VSS.t63 sky130_fd_pr__res_high_po_0p69 l=12.22
X117 ia_opamp_0.V2.t2 a_16261_n9984.t2 VSS.t33 sky130_fd_pr__res_high_po_0p69 l=12.22
X118 a_n2121_12765# a_n2559_13399# DVSS.t226 DVSS.t225 sky130_fd_pr__nfet_g5v0d10v5 ad=0.21 pd=1.78 as=0.21 ps=1.78 w=1.5 l=0.5
X119 x5.V2.t17 D33v3.t8 a_3720_n9984.t7 VSS.t87 sky130_fd_pr__nfet_g5v0d10v5 ad=0.6351 pd=4.67 as=0.6351 ps=4.67 w=4.38 l=1
X120 a_6164_n4916.t16 D43v3.t7 x4.V2.t85 VSS.t244 sky130_fd_pr__nfet_g5v0d10v5 ad=0.638 pd=4.69 as=0.638 ps=4.69 w=4.4 l=1
X121 x5.V2.t11 x4.V2.t12 VSS.t60 sky130_fd_pr__res_high_po_0p69 l=12.22
X122 x4.V2.t42 D33v3.t9 a_3720_n4916.t6 VSS.t87 sky130_fd_pr__nfet_g5v0d10v5 ad=0.6351 pd=4.67 as=0.6351 ps=4.67 w=4.38 l=1
X123 VOUT.t27 a_16261_n4916.t13 VSS.t33 sky130_fd_pr__res_high_po_0p69 l=12.22
X124 a_n2577_4809# a_n2603_4862# DVSS.t181 DVSS.t176 sky130_fd_pr__nfet_g5v0d10v5 ad=0.21 pd=1.78 as=0.21 ps=1.78 w=1.5 l=0.5
X125 x5.V2.t31 x4.V2.t30 VSS.t63 sky130_fd_pr__res_high_po_0p69 l=12.22
X126 a_n2577_14793# a_n2603_14846# DVSS.t175 DVSS.t170 sky130_fd_pr__nfet_g5v0d10v5 ad=0.21 pd=1.78 as=0.21 ps=1.78 w=1.5 l=0.5
X127 x3.R1.t11 x8.V2.t10 VSS.t61 sky130_fd_pr__res_high_po_0p69 l=12.22
X128 amp_biases_0.ibias1.t1 amp_biases_0.ibias1.t0 VSS.t50 VSS.t49 sky130_fd_pr__nfet_g5v0d10v5 ad=4.4776 pd=31.46 as=4.4776 ps=31.46 w=15.44 l=1
X129 x3.R1.t12 x8.V2.t11 VSS.t62 sky130_fd_pr__res_high_po_0p69 l=12.22
X130 x6.V1.t28 x9.V2.t15 VSS.t116 sky130_fd_pr__res_high_po_0p69 l=12.22
X131 x5.V2.t29 x4.V2.t28 VSS.t112 sky130_fd_pr__res_high_po_0p69 l=12.22
X132 a_16261_n9984.t26 D93v3.t4 x6.V1.t61 VSS.t202 sky130_fd_pr__nfet_g5v0d10v5 ad=0.638 pd=4.69 as=0.638 ps=4.69 w=4.4 l=1
X133 AVOUT2.t0 a_6164_n9984.t0 VSS.t3 sky130_fd_pr__res_high_po_0p69 l=12.22
X134 a_10047_764.t0 x8.V2.t70 a_9789_764.t0 VSS.t201 sky130_fd_pr__nfet_g5v0d10v5 ad=4.785 pd=33.58 as=4.785 ps=33.58 w=16.5 l=1
X135 a_4215_764.t3 a_3421_764.t5 VDD.t122 VDD.t121 sky130_fd_pr__pfet_g5v0d10v5 ad=2.175 pd=15.29 as=4.35 ps=30.58 w=15 l=1
X136 x5.V2.t46 x4.V2.t48 VSS.t152 sky130_fd_pr__res_high_po_0p69 l=12.22
X137 x6.V1.t16 x9.V2.t8 VSS.t63 sky130_fd_pr__res_high_po_0p69 l=12.22
X138 a_16261_n4916.t26 D93v3.t5 x3.R1.t78 VSS.t202 sky130_fd_pr__nfet_g5v0d10v5 ad=0.638 pd=4.69 as=0.638 ps=4.69 w=4.4 l=1
X139 AVOUT1.t17 a_6164_n4916.t19 VSS.t3 sky130_fd_pr__res_high_po_0p69 l=12.22
X140 DVSS.t125 a_n2559_15895# a_n2121_15261# DVSS.t124 sky130_fd_pr__nfet_g5v0d10v5 ad=0.21 pd=1.78 as=0.3975 ps=3.53 w=1.5 l=0.5
X141 DVSS.t298 VDD.t236 DVSS.t297 DVSS.t296 sky130_fd_pr__nfet_g5v0d10v5 ad=0.19875 pd=2.03 as=0 ps=0 w=0.75 l=1
X142 AVOUT2.t33 a_6164_n9984.t28 VSS.t34 sky130_fd_pr__res_high_po_0p69 l=12.22
X143 a_495_764.t2 ia_opamp_0.V2.t38 a_237_764.t4 VSS.t115 sky130_fd_pr__nfet_g5v0d10v5 ad=4.785 pd=33.58 as=4.785 ps=33.58 w=16.5 l=1
X144 VDD.t69 a_3421_764.t3 a_3421_764.t4 VDD.t68 sky130_fd_pr__pfet_g5v0d10v5 ad=4.35 pd=30.58 as=2.175 ps=15.29 w=15 l=1
X145 DVSS.t234 a_n2603_7358# a_n2577_7305# DVSS.t229 sky130_fd_pr__nfet_g5v0d10v5 ad=0.21 pd=1.78 as=0.3975 ps=3.53 w=1.5 l=0.5
X146 AVOUT1.t4 a_6164_n4916.t3 VSS.t34 sky130_fd_pr__res_high_po_0p69 l=12.22
X147 a_3720_n9984.t6 D33v3.t10 x5.V2.t41 VSS.t159 sky130_fd_pr__nfet_g5v0d10v5 ad=0.6351 pd=4.67 as=0.6351 ps=4.67 w=4.38 l=1
X148 VDD.t144 a_7399_764.t4 AVOUT2.t23 VDD.t143 sky130_fd_pr__pfet_g5v0d10v5 ad=5.51 pd=38.58 as=2.755 ps=19.29 w=19 l=1
X149 a_n2559_8407# D2.t0 DVSS.t55 DVSS.t54 sky130_fd_pr__nfet_01v8 ad=0.2478 pd=2.27 as=0.1176 ps=1.12 w=0.84 l=0.15
X150 x6.V1.t62 x9.V2.t43 VSS.t61 sky130_fd_pr__res_high_po_0p69 l=12.22
X151 x5.V2.t32 x4.V2.t31 VSS.t118 sky130_fd_pr__res_high_po_0p69 l=12.22
X152 a_3720_n4916.t5 D33v3.t11 x4.V2.t43 VSS.t159 sky130_fd_pr__nfet_g5v0d10v5 ad=0.6351 pd=4.67 as=0.6351 ps=4.67 w=4.38 l=1
X153 a_4215_764.t0 V2.t0 a_3679_764.t2 VSS.t84 sky130_fd_pr__nfet_g5v0d10v5 ad=4.785 pd=33.58 as=4.785 ps=33.58 w=16.5 l=1
X154 x5.V2.t87 x4.V2.t88 VSS.t170 sky130_fd_pr__res_high_po_0p69 l=12.22
X155 DVSS.t3 a_n1825_n10322# D93v3.t0 DVSS.t2 sky130_fd_pr__nfet_g5v0d10v5 ad=0.121875 pd=1.075 as=0.19875 ps=2.03 w=0.75 l=0.5
X156 x5.V2.t42 x4.V2.t44 VSS.t142 sky130_fd_pr__res_high_po_0p69 l=12.22
X157 x6.V1.t42 x9.V2.t29 VSS.t62 sky130_fd_pr__res_high_po_0p69 l=12.22
X158 x3.R1.t19 x8.V2.t15 VSS.t91 sky130_fd_pr__res_high_po_0p69 l=12.22
X159 ia_opamp_0.V2.t4 a_16261_n9984.t4 VSS.t56 sky130_fd_pr__res_high_po_0p69 l=12.22
X160 a_3421_764.t2 a_3421_764.t1 VDD.t91 VDD.t90 sky130_fd_pr__pfet_g5v0d10v5 ad=2.175 pd=15.29 as=4.35 ps=30.58 w=15 l=1
X161 VOUT.t2 a_16261_n4916.t0 VSS.t56 sky130_fd_pr__res_high_po_0p69 l=12.22
X162 DVSS.t5 a_n1825_n338# D53v3.t0 DVSS.t4 sky130_fd_pr__nfet_g5v0d10v5 ad=0.121875 pd=1.075 as=0.19875 ps=2.03 w=0.75 l=0.5
X163 a_1031_764.t1 G.t0 a_495_764.t0 VSS.t122 sky130_fd_pr__nfet_g5v0d10v5 ad=4.785 pd=33.58 as=4.785 ps=33.58 w=16.5 l=1
X164 DVSS.t150 a_n2603_9854# a_n2577_9801# DVSS.t146 sky130_fd_pr__nfet_g5v0d10v5 ad=0.21 pd=1.78 as=0.3975 ps=3.53 w=1.5 l=0.5
X165 DVSS.t29 a_n1825_9646# D13v3.t0 DVSS.t28 sky130_fd_pr__nfet_g5v0d10v5 ad=0.121875 pd=1.075 as=0.19875 ps=2.03 w=0.75 l=0.5
X166 DVSS.t143 a_n2603_n2626# a_n2577_n2679# DVSS.t138 sky130_fd_pr__nfet_g5v0d10v5 ad=0.21 pd=1.78 as=0.21 ps=1.78 w=1.5 l=0.5
X167 DVDD.t31 a_n2559_n9065# a_n2603_n10114# DVDD.t30 sky130_fd_pr__pfet_01v8_hvt ad=0.1176 pd=1.12 as=0.2478 ps=2.27 w=0.84 l=0.15
X168 ia_opamp_0.V2.t16 a_13817_n9984.t1 VSS.t161 sky130_fd_pr__res_high_po_0p69 l=12.22
X169 x5.V2.t74 x4.V2.t75 VSS.t35 sky130_fd_pr__res_high_po_0p69 l=12.22
X170 x3.R1.t34 x8.V2.t29 VSS.t142 sky130_fd_pr__res_high_po_0p69 l=12.22
X171 VDD.t112 a_9789_764.t1 a_9789_764.t2 VDD.t111 sky130_fd_pr__pfet_g5v0d10v5 ad=4.35 pd=30.58 as=2.175 ps=15.29 w=15 l=1
X172 a_n2121_285# a_n2559_919# DVSS.t264 DVSS.t263 sky130_fd_pr__nfet_g5v0d10v5 ad=0.21 pd=1.78 as=0.21 ps=1.78 w=1.5 l=0.5
X173 x3.R1.t14 x8.V2.t13 VSS.t44 sky130_fd_pr__res_high_po_0p69 l=12.22
X174 VOUT.t17 a_13817_n4916.t4 VSS.t161 sky130_fd_pr__res_high_po_0p69 l=12.22
X175 DVSS.t66 a_n2559_5911# a_n2121_5277# DVSS.t65 sky130_fd_pr__nfet_g5v0d10v5 ad=0.3975 pd=3.53 as=0.21 ps=1.78 w=1.5 l=0.5
X176 x3.R1.t81 x8.V2.t58 VSS.t143 sky130_fd_pr__res_high_po_0p69 l=12.22
X177 VDD.t61 a_6605_764.t5 a_7399_764.t1 VDD.t60 sky130_fd_pr__pfet_g5v0d10v5 ad=4.35 pd=30.58 as=2.175 ps=15.29 w=15 l=1
X178 VDD.t132 a_204_12823.t5 amp_biases_0.ibias1.t3 VDD.t131 sky130_fd_pr__pfet_g5v0d10v5 ad=2.175 pd=15.29 as=2.175 ps=15.29 w=15 l=1
X179 a_n2577_9801# a_n2121_10269# VDD.t128 VDD.t127 sky130_fd_pr__pfet_g5v0d10v5 ad=0.1365 pd=1.49 as=0.1113 ps=1.37 w=0.42 l=1
X180 DVSS.t202 D7.t0 sky130_fd_pr__diode_pw2nd_11v0 perim=3.16e+06 area=6.072e+11
X181 x6.V1.t88 x9.V2.t64 VSS.t91 sky130_fd_pr__res_high_po_0p69 l=12.22
X182 VDD.t162 DVSS.t309 VDD.t161 VDD.t160 sky130_fd_pr__pfet_g5v0d10v5 ad=0.265 pd=2.53 as=0 ps=0 w=1 l=1
X183 a_n2559_n9065# D9.t1 DVSS.t169 DVSS.t168 sky130_fd_pr__nfet_01v8 ad=0.2478 pd=2.27 as=0.1176 ps=1.12 w=0.84 l=0.15
X184 a_16150_281.t0 VOUT.t29 VSS.t228 sky130_fd_pr__res_high_po_0p69 l=3.2
X185 VDD.t138 a_204_12823.t6 amp_biases_0.ibias5.t3 VDD.t137 sky130_fd_pr__pfet_g5v0d10v5 ad=4.35 pd=30.58 as=2.175 ps=15.29 w=15 l=1
X186 x5.V2.t25 D23v3.t2 a_2308_n9984.t3 VSS.t123 sky130_fd_pr__nfet_g5v0d10v5 ad=0.67425 pd=4.94 as=1.3485 ps=9.88 w=4.65 l=1
X187 a_n1825_n2834# a_n2121_n2211# VDD.t89 VDD.t88 sky130_fd_pr__pfet_g5v0d10v5 ad=0.3975 pd=3.53 as=0.24375 ps=1.825 w=1.5 l=0.5
X188 x4.V2.t35 D23v3.t3 a_2308_n4916.t3 VSS.t123 sky130_fd_pr__nfet_g5v0d10v5 ad=0.67425 pd=4.94 as=1.3485 ps=9.88 w=4.65 l=1
X189 AVOUT2.t10 a_6164_n9984.t3 VSS.t105 sky130_fd_pr__res_high_po_0p69 l=12.22
X190 amp_biases_0.ibias2.t1 amp_biases_0.ibias2.t0 VSS.t219 VSS.t218 sky130_fd_pr__nfet_g5v0d10v5 ad=4.4776 pd=31.46 as=4.4776 ps=31.46 w=15.44 l=1
X191 a_n2577_n10167# a_n2603_n10114# DVSS.t26 DVSS.t22 sky130_fd_pr__nfet_g5v0d10v5 ad=0.21 pd=1.78 as=0.21 ps=1.78 w=1.5 l=0.5
X192 a_n2577_n183# a_n2603_n130# DVSS.t187 DVSS.t182 sky130_fd_pr__nfet_g5v0d10v5 ad=0.21 pd=1.78 as=0.21 ps=1.78 w=1.5 l=0.5
X193 x6.V1.t32 x9.V2.t19 VSS.t142 sky130_fd_pr__res_high_po_0p69 l=12.22
X194 AVOUT1.t28 a_6164_n4916.t25 VSS.t105 sky130_fd_pr__res_high_po_0p69 l=12.22
X195 DVSS.t45 a_n2559_8407# a_n2121_7773# DVSS.t44 sky130_fd_pr__nfet_g5v0d10v5 ad=0.3975 pd=3.53 as=0.21 ps=1.78 w=1.5 l=0.5
X196 DVSS.t212 a_n2559_3415# a_n2121_2781# DVSS.t211 sky130_fd_pr__nfet_g5v0d10v5 ad=0.21 pd=1.78 as=0.3975 ps=3.53 w=1.5 l=0.5
X197 x6.V1.t33 x9.V2.t20 VSS.t143 sky130_fd_pr__res_high_po_0p69 l=12.22
X198 x6.V1.t11 x9.V2.t5 VSS.t44 sky130_fd_pr__res_high_po_0p69 l=12.22
X199 AVOUT2.t1 a_3720_n9984.t0 VSS.t37 sky130_fd_pr__res_high_po_0p69 l=12.22
X200 a_7399_764.t0 a_6605_764.t6 VDD.t183 VDD.t182 sky130_fd_pr__pfet_g5v0d10v5 ad=2.175 pd=15.29 as=4.35 ps=30.58 w=15 l=1
X201 VDD.t48 a_6605_764.t0 a_6605_764.t1 VDD.t47 sky130_fd_pr__pfet_g5v0d10v5 ad=4.35 pd=30.58 as=2.175 ps=15.29 w=15 l=1
X202 a_n2577_12297# a_n2121_12765# VDD.t99 VDD.t98 sky130_fd_pr__pfet_g5v0d10v5 ad=0.1365 pd=1.49 as=0.1113 ps=1.37 w=0.42 l=1
X203 ia_opamp_0.V2.t14 a_16261_n9984.t9 VSS.t113 sky130_fd_pr__res_high_po_0p69 l=12.22
X204 AVOUT1.t24 a_3720_n4916.t14 VSS.t37 sky130_fd_pr__res_high_po_0p69 l=12.22
X205 a_3414_281.t0 AVOUT1.t11 VSS.t93 sky130_fd_pr__res_high_po_0p69 l=3.2
X206 VDD.t204 DVSS.t310 VDD.t203 VDD.t202 sky130_fd_pr__pfet_g5v0d10v5 ad=0.265 pd=2.53 as=0 ps=0 w=1 l=1
X207 x3.R1.t9 x8.V2.t8 VSS.t57 sky130_fd_pr__res_high_po_0p69 l=12.22
X208 a_n2559_10903# D1.t0 DVSS.t1 DVSS.t0 sky130_fd_pr__nfet_01v8 ad=0.2478 pd=2.27 as=0.1176 ps=1.12 w=0.84 l=0.15
X209 a_n2121_5277# a_n2577_4809# VDD.t199 VDD.t198 sky130_fd_pr__pfet_g5v0d10v5 ad=0.2142 pd=1.99 as=0.2142 ps=1.99 w=0.42 l=1
X210 VOUT.t9 a_16261_n4916.t3 VSS.t113 sky130_fd_pr__res_high_po_0p69 l=12.22
X211 VDD.t136 a_12973_764.t5 a_13767_764.t1 VDD.t135 sky130_fd_pr__pfet_g5v0d10v5 ad=4.35 pd=30.58 as=2.175 ps=15.29 w=15 l=1
X212 a_1412_n9984# D13v3.t2 x5.V2.t91 VSS.t154 sky130_fd_pr__nfet_g5v0d10v5 ad=1.4123 pd=10.32 as=0.70615 ps=5.16 w=4.87 l=1
X213 amp_biases_0.ibias1.t2 a_204_12823.t7 VDD.t140 VDD.t139 sky130_fd_pr__pfet_g5v0d10v5 ad=2.175 pd=15.29 as=2.175 ps=15.29 w=15 l=1
X214 a_1412_n4916# D13v3.t3 x4.V2.t40 VSS.t154 sky130_fd_pr__nfet_g5v0d10v5 ad=1.4123 pd=10.32 as=0.70615 ps=5.16 w=4.87 l=1
X215 DVSS.t64 a_n2559_5911# a_n2121_5277# DVSS.t63 sky130_fd_pr__nfet_g5v0d10v5 ad=0.21 pd=1.78 as=0.3975 ps=3.53 w=1.5 l=0.5
X216 x5.V2.t71 x4.V2.t72 VSS.t79 sky130_fd_pr__res_high_po_0p69 l=12.22
X217 a_6863_764.t2 x5.V2.t94 a_6605_764.t4 VSS.t129 sky130_fd_pr__nfet_g5v0d10v5 ad=4.785 pd=33.58 as=4.785 ps=33.58 w=16.5 l=1
X218 x5.V2.t44 x4.V2.t46 VSS.t114 sky130_fd_pr__res_high_po_0p69 l=12.22
X219 DVDD.t35 a_n2559_3415# a_n2603_2366# DVDD.t34 sky130_fd_pr__pfet_01v8_hvt ad=0.1176 pd=1.12 as=0.2478 ps=2.27 w=0.84 l=0.15
X220 x6.V1.t44 x9.V2.t31 VSS.t57 sky130_fd_pr__res_high_po_0p69 l=12.22
X221 AVOUT2.t30 a_1412_n9984# VSS.t241 sky130_fd_pr__res_high_po_0p69 l=12.22
X222 a_n2121_7773# a_n2577_7305# VDD.t191 VDD.t190 sky130_fd_pr__pfet_g5v0d10v5 ad=0.2142 pd=1.99 as=0.2142 ps=1.99 w=0.42 l=1
X223 a_n2121_n2211# a_n2577_n2679# VDD.t81 VDD.t80 sky130_fd_pr__pfet_g5v0d10v5 ad=0.2142 pd=1.99 as=0.2142 ps=1.99 w=0.42 l=1
X224 AVOUT1.t37 a_1412_n4916# VSS.t241 sky130_fd_pr__res_high_po_0p69 l=12.22
X225 VDD.t59 a_12973_764.t0 a_12973_764.t1 VDD.t58 sky130_fd_pr__pfet_g5v0d10v5 ad=4.35 pd=30.58 as=2.175 ps=15.29 w=15 l=1
X226 DVSS.t186 a_n2603_n130# a_n2577_n183# DVSS.t182 sky130_fd_pr__nfet_g5v0d10v5 ad=0.21 pd=1.78 as=0.21 ps=1.78 w=1.5 l=0.5
X227 x5.V2.t84 D43v3.t8 a_6164_n9984.t14 VSS.t47 sky130_fd_pr__nfet_g5v0d10v5 ad=0.638 pd=4.69 as=0.638 ps=4.69 w=4.4 l=1
X228 x8.V2.t35 a_10583_764.t5 VDD.t120 VDD.t119 sky130_fd_pr__pfet_g5v0d10v5 ad=2.755 pd=19.29 as=5.51 ps=38.58 w=19 l=1
X229 a_n2121_n2211# a_n2559_n1577# DVSS.t83 DVSS.t82 sky130_fd_pr__nfet_g5v0d10v5 ad=0.21 pd=1.78 as=0.21 ps=1.78 w=1.5 l=0.5
X230 VDD.t142 a_204_12823.t8 ia_opamp_0.ibias.t3 VDD.t141 sky130_fd_pr__pfet_g5v0d10v5 ad=2.175 pd=15.29 as=2.175 ps=15.29 w=15 l=1
X231 x5.V2.t56 x4.V2.t57 VSS.t116 sky130_fd_pr__res_high_po_0p69 l=12.22
X232 AVOUT2.t25 a_6164_n9984.t23 VSS.t208 sky130_fd_pr__res_high_po_0p69 l=12.22
X233 x5.V2.t14 x4.V2.t15 VSS.t61 sky130_fd_pr__res_high_po_0p69 l=12.22
X234 x5.V2.t69 x4.V2.t70 VSS.t8 sky130_fd_pr__res_high_po_0p69 l=12.22
X235 x4.V2.t9 D43v3.t9 a_6164_n4916.t15 VSS.t47 sky130_fd_pr__nfet_g5v0d10v5 ad=0.638 pd=4.69 as=0.638 ps=4.69 w=4.4 l=1
X236 x3.R1.t87 x8.V2.t64 VSS.t174 sky130_fd_pr__res_high_po_0p69 l=12.22
X237 AVOUT1.t35 a_6164_n4916.t29 VSS.t208 sky130_fd_pr__res_high_po_0p69 l=12.22
X238 ia_opamp_0.V2.t8 a_16261_n9984.t7 VSS.t92 sky130_fd_pr__res_high_po_0p69 l=12.22
X239 x5.V2.t8 D43v3.t10 a_6164_n9984.t13 VSS.t48 sky130_fd_pr__nfet_g5v0d10v5 ad=0.638 pd=4.69 as=0.638 ps=4.69 w=4.4 l=1
X240 a_12405_n9984.t4 D73v3.t4 x6.V1.t17 VSS.t76 sky130_fd_pr__nfet_g5v0d10v5 ad=0.67425 pd=4.94 as=0.67425 ps=4.94 w=4.65 l=1
X241 a_n2121_7773# a_n2559_8407# DVSS.t47 DVSS.t46 sky130_fd_pr__nfet_g5v0d10v5 ad=0.21 pd=1.78 as=0.21 ps=1.78 w=1.5 l=0.5
X242 DVDD.t13 a_n2559_5911# a_n2603_4862# DVDD.t12 sky130_fd_pr__pfet_01v8_hvt ad=0.1176 pd=1.12 as=0.2478 ps=2.27 w=0.84 l=0.15
X243 a_n1825_n2834# a_n2121_n2211# DVSS.t75 DVSS.t74 sky130_fd_pr__nfet_g5v0d10v5 ad=0.19875 pd=2.03 as=0.121875 ps=1.075 w=0.75 l=0.5
X244 DVSS.t43 a_n2559_8407# a_n2603_7358# DVSS.t42 sky130_fd_pr__nfet_01v8 ad=0.1176 pd=1.12 as=0.2478 ps=2.27 w=0.84 l=0.15
X245 a_n1825_n5330# a_n2121_n4707# VDD.t225 VDD.t188 sky130_fd_pr__pfet_g5v0d10v5 ad=0.3975 pd=3.53 as=0.24375 ps=1.825 w=1.5 l=0.5
X246 a_12405_n4916.t5 D73v3.t5 x3.R1.t16 VSS.t76 sky130_fd_pr__nfet_g5v0d10v5 ad=0.67425 pd=4.94 as=0.67425 ps=4.94 w=4.65 l=1
X247 x4.V2.t10 D43v3.t11 a_6164_n4916.t14 VSS.t48 sky130_fd_pr__nfet_g5v0d10v5 ad=0.638 pd=4.69 as=0.638 ps=4.69 w=4.4 l=1
X248 DVSS.t108 D1.t1 sky130_fd_pr__diode_pw2nd_11v0 perim=3.16e+06 area=6.072e+11
X249 VOUT.t3 a_16261_n4916.t1 VSS.t92 sky130_fd_pr__res_high_po_0p69 l=12.22
X250 x5.V2.t55 x4.V2.t56 VSS.t132 sky130_fd_pr__res_high_po_0p69 l=12.22
X251 x5.V2.t1 x4.V2.t1 VSS.t4 sky130_fd_pr__res_high_po_0p69 l=12.22
X252 ia_opamp_0.ibias.t2 a_204_12823.t9 VDD.t36 VDD.t35 sky130_fd_pr__pfet_g5v0d10v5 ad=2.175 pd=15.29 as=4.35 ps=30.58 w=15 l=1
X253 ia_opamp_0.V2.t19 a_13817_n9984.t3 VSS.t117 sky130_fd_pr__res_high_po_0p69 l=12.22
X254 a_6598_281.t1 a_7399_764.t2 sky130_fd_pr__cap_mim_m3_1 l=6.9 w=6.9
X255 x5.V2.t93 x4.V2.t93 VSS.t7 sky130_fd_pr__res_high_po_0p69 l=12.22
X256 x3.R1.t84 x8.V2.t61 VSS.t141 sky130_fd_pr__res_high_po_0p69 l=12.22
X257 DVSS.t295 VDD.t237 DVSS.t294 DVSS.t293 sky130_fd_pr__nfet_g5v0d10v5 ad=0.19875 pd=2.03 as=0 ps=0 w=0.75 l=1
X258 DVDD.t19 a_n2559_n1577# a_n2603_n2626# DVDD.t18 sky130_fd_pr__pfet_01v8_hvt ad=0.1176 pd=1.12 as=0.2478 ps=2.27 w=0.84 l=0.15
X259 a_n2121_n4707# a_n2559_n4073# DVSS.t254 DVSS.t253 sky130_fd_pr__nfet_g5v0d10v5 ad=0.21 pd=1.78 as=0.21 ps=1.78 w=1.5 l=0.5
X260 VOUT.t10 a_13817_n4916.t1 VSS.t117 sky130_fd_pr__res_high_po_0p69 l=12.22
X261 x3.R1.t6 x8.V2.t6 VSS.t43 sky130_fd_pr__res_high_po_0p69 l=12.22
X262 ia_opamp_0.V2.t17 a_16261_n9984.t10 VSS.t156 sky130_fd_pr__res_high_po_0p69 l=12.22
X263 DVSS.t252 a_n2559_n4073# a_n2121_n4707# DVSS.t251 sky130_fd_pr__nfet_g5v0d10v5 ad=0.21 pd=1.78 as=0.21 ps=1.78 w=1.5 l=0.5
X264 x3.R1.t52 x8.V2.t52 VSS.t217 sky130_fd_pr__res_high_po_0p69 l=12.22
X265 x6.V1.t46 x9.V2.t33 VSS.t174 sky130_fd_pr__res_high_po_0p69 l=12.22
X266 VOUT.t15 a_16261_n4916.t5 VSS.t156 sky130_fd_pr__res_high_po_0p69 l=12.22
X267 a_n2559_13399# D0.t0 DVSS.t136 DVSS.t135 sky130_fd_pr__nfet_01v8 ad=0.2478 pd=2.27 as=0.1176 ps=1.12 w=0.84 l=0.15
X268 VDD.t9 a_n1825_n338# D53v3.t1 VDD.t8 sky130_fd_pr__pfet_g5v0d10v5 ad=0.24375 pd=1.825 as=0.3975 ps=3.53 w=1.5 l=0.5
X269 x6.V1.t70 D93v3.t6 a_16261_n9984.t25 VSS.t227 sky130_fd_pr__nfet_g5v0d10v5 ad=0.638 pd=4.69 as=0.638 ps=4.69 w=4.4 l=1
X270 VDD.t44 a_16157_764.t6 a_16951_764.t2 VDD.t43 sky130_fd_pr__pfet_g5v0d10v5 ad=4.35 pd=30.58 as=2.175 ps=15.29 w=15 l=1
X271 VDD.t164 a_237_764.t5 a_1031_764.t3 VDD.t163 sky130_fd_pr__pfet_g5v0d10v5 ad=4.35 pd=30.58 as=2.175 ps=15.29 w=15 l=1
X272 VDD.t32 a_n1825_9646# D13v3.t1 VDD.t31 sky130_fd_pr__pfet_g5v0d10v5 ad=0.24375 pd=1.825 as=0.3975 ps=3.53 w=1.5 l=0.5
X273 DVSS.t292 VDD.t238 DVSS.t291 DVSS.t290 sky130_fd_pr__nfet_g5v0d10v5 ad=0.19875 pd=2.03 as=0 ps=0 w=0.75 l=1
X274 a_n1825_n7826# a_n2121_n7203# VDD.t125 VDD.t84 sky130_fd_pr__pfet_g5v0d10v5 ad=0.3975 pd=3.53 as=0.24375 ps=1.825 w=1.5 l=0.5
X275 a_n1825_n10322# a_n2121_n9699# VDD.t14 VDD.t0 sky130_fd_pr__pfet_g5v0d10v5 ad=0.3975 pd=3.53 as=0.24375 ps=1.825 w=1.5 l=0.5
X276 x3.R1.t77 D93v3.t7 a_16261_n4916.t22 VSS.t227 sky130_fd_pr__nfet_g5v0d10v5 ad=0.638 pd=4.69 as=0.638 ps=4.69 w=4.4 l=1
X277 x5.V2.t30 x4.V2.t29 VSS.t137 sky130_fd_pr__res_high_po_0p69 l=12.22
X278 DVSS.t224 a_n2559_13399# a_n2121_12765# DVSS.t223 sky130_fd_pr__nfet_g5v0d10v5 ad=0.3975 pd=3.53 as=0.21 ps=1.78 w=1.5 l=0.5
X279 ibias.t0 sky130_fd_sc_hvl__lsbuflv2hv_1_0[10].X.t2 a_2622_12748.t0 VSS.t235 sky130_fd_pr__nfet_g5v0d10v5 ad=4.4776 pd=31.46 as=2.2388 ps=15.73 w=15.44 l=1
X280 a_12966_281.t1 a_13767_764.t2 sky130_fd_pr__cap_mim_m3_1 l=6.9 w=6.9
X281 AVOUT2.t9 a_6164_n9984.t2 VSS.t103 sky130_fd_pr__res_high_po_0p69 l=12.22
X282 DVSS.t180 a_n2603_4862# a_n2577_4809# DVSS.t176 sky130_fd_pr__nfet_g5v0d10v5 ad=0.3975 pd=3.53 as=0.21 ps=1.78 w=1.5 l=0.5
X283 a_6164_n9984.t12 D43v3.t12 x5.V2.t61 VSS.t196 sky130_fd_pr__nfet_g5v0d10v5 ad=0.638 pd=4.69 as=0.638 ps=4.69 w=4.4 l=1
X284 a_n2577_9801# a_n2603_9854# DVSS.t149 DVSS.t146 sky130_fd_pr__nfet_g5v0d10v5 ad=0.21 pd=1.78 as=0.21 ps=1.78 w=1.5 l=0.5
X285 x6.V1.t31 x9.V2.t18 VSS.t141 sky130_fd_pr__res_high_po_0p69 l=12.22
X286 AVOUT1.t21 a_6164_n4916.t21 VSS.t103 sky130_fd_pr__res_high_po_0p69 l=12.22