* PEX produced on Fri May 31 03:56:51 PM CEST 2024 using /foss/tools/osic-multitool/iic-pex.sh with m=2 and s=1
* NGSPICE file created from IA_v4.ext - technology: sky130A

.subckt IA_v4 VSS V2 AVOUT2 D8 D4 D7 D3 D6 D2 D5 D1 D0 VDD AVOUT1 VOUT V1 D9
X0 x3.R1 x8.V2 VSS sky130_fd_pr__res_high_po_0p69 l=12.1
X1 x6.V1 D9 a_16261_n9984# VSS sky130_fd_pr__nfet_g5v0d10v5 ad=0.638 pd=4.69 as=0.638 ps=4.69 w=4.4 l=1
X2 x3.R1 x8.V2 VSS sky130_fd_pr__res_high_po_0p69 l=12.1
X3 x3.R1 D9 a_16261_n4916# VSS sky130_fd_pr__nfet_g5v0d10v5 ad=0.638 pd=4.69 as=0.638 ps=4.69 w=4.4 l=1
X4 a_6164_n9984# D4 x2.R1 VSS sky130_fd_pr__nfet_g5v0d10v5 ad=0.638 pd=4.69 as=0.638 ps=4.69 w=4.4 l=1
X5 AVOUT2 a_6164_n9984# VSS sky130_fd_pr__res_high_po_0p69 l=12.1
X6 a_11014_938# a_11014_938# VSS VSS sky130_fd_pr__nfet_g5v0d10v5 ad=4.48 pd=31.5 as=4.48 ps=31.5 w=15.4 l=1
X7 x2.R1 x1.R1 VSS sky130_fd_pr__res_high_po_0p69 l=12.1
X8 a_13741_764# x6.V1 a_13215_764# VSS sky130_fd_pr__nfet_g5v0d10v5 ad=4.78 pd=33.6 as=4.78 ps=33.6 w=16.5 l=1
X9 x2.R1 D3 a_3720_n9984# VSS sky130_fd_pr__nfet_g5v0d10v5 ad=0.635 pd=4.67 as=1.27 ps=9.34 w=4.38 l=1
X10 a_6164_n4916# D4 x1.R1 VSS sky130_fd_pr__nfet_g5v0d10v5 ad=0.638 pd=4.69 as=0.638 ps=4.69 w=4.4 l=1
X11 AVOUT1 a_6164_n4916# VSS sky130_fd_pr__res_high_po_0p69 l=12.1
X12 x3.R1 x8.V2 VSS sky130_fd_pr__res_high_po_0p69 l=12.1
X13 a_4189_764# a_3405_764# VDD VDD sky130_fd_pr__pfet_g5v0d10v5 ad=2.17 pd=15.3 as=4.35 ps=30.6 w=15 l=1
X14 x6.V1 D7 a_12405_n9984# VSS sky130_fd_pr__nfet_g5v0d10v5 ad=0.674 pd=4.94 as=1.35 ps=9.88 w=4.65 l=1
X15 x1.R1 D3 a_3720_n4916# VSS sky130_fd_pr__nfet_g5v0d10v5 ad=0.635 pd=4.67 as=1.27 ps=9.34 w=4.38 l=1
X16 VDD a_3405_764# a_3405_764# VDD sky130_fd_pr__pfet_g5v0d10v5 ad=4.35 pd=30.6 as=2.17 ps=15.3 w=15 l=1
X17 x9.V2 x6.V1 VSS sky130_fd_pr__res_high_po_0p69 l=12.1
X18 x3.R1 x8.V2 VSS sky130_fd_pr__res_high_po_0p69 l=12.1
X19 x3.R1 D7 a_12405_n4916# VSS sky130_fd_pr__nfet_g5v0d10v5 ad=0.674 pd=4.94 as=1.35 ps=9.88 w=4.65 l=1
X20 VSS a_16261_n9984# VSS sky130_fd_pr__res_high_po_0p69 l=12.1
X21 x3.R1 x8.V2 VSS sky130_fd_pr__res_high_po_0p69 l=12.1
X22 x2.R1 x1.R1 VSS sky130_fd_pr__res_high_po_0p69 l=12.1
X23 x2.R1 x1.R1 VSS sky130_fd_pr__res_high_po_0p69 l=12.1
X24 VOUT a_16261_n4916# VSS sky130_fd_pr__res_high_po_0p69 l=12.1
X25 VDD a_7373_764# x8.V2 VDD sky130_fd_pr__pfet_g5v0d10v5 ad=5.51 pd=38.6 as=2.76 ps=19.3 w=19 l=1
X26 VSS a_13817_n9984# VSS sky130_fd_pr__res_high_po_0p69 l=12.1
X27 VOUT a_13817_n4916# VSS sky130_fd_pr__res_high_po_0p69 l=12.1
X28 x8.V2 a_7830_938# VSS VSS sky130_fd_pr__nfet_g5v0d10v5 ad=5.51 pd=38.6 as=5.51 ps=38.6 w=19 l=1
X29 x2.R1 x1.R1 VSS sky130_fd_pr__res_high_po_0p69 l=12.1
X30 x2.R1 x1.R1 VSS sky130_fd_pr__res_high_po_0p69 l=12.1
X31 a_11509_n9984# D6 x6.V1 VSS sky130_fd_pr__nfet_g5v0d10v5 ad=1.41 pd=10.3 as=0.706 ps=5.16 w=4.87 l=1
X32 x2.R1 x1.R1 VSS sky130_fd_pr__res_high_po_0p69 l=12.1
X33 x9.V2 x6.V1 VSS sky130_fd_pr__res_high_po_0p69 l=12.1
X34 a_11509_n4916# D6 x3.R1 VSS sky130_fd_pr__nfet_g5v0d10v5 ad=1.41 pd=10.3 as=0.706 ps=5.16 w=4.87 l=1
X35 VSS a_4646_938# a_3663_764# VSS sky130_fd_pr__nfet_g5v0d10v5 ad=4.48 pd=31.5 as=4.48 ps=31.5 w=15.4 l=1
X36 x3.R1 x8.V2 VSS sky130_fd_pr__res_high_po_0p69 l=12.1
X37 VDD a_9773_764# a_9773_764# VDD sky130_fd_pr__pfet_g5v0d10v5 ad=4.35 pd=30.6 as=2.17 ps=15.3 w=15 l=1
X38 x2.R1 D4 a_6164_n9984# VSS sky130_fd_pr__nfet_g5v0d10v5 ad=0.638 pd=4.69 as=0.638 ps=4.69 w=4.4 l=1
X39 AVOUT2 a_1412_n9984# VSS sky130_fd_pr__res_high_po_0p69 l=12.1
X40 x9.V2 x6.V1 VSS sky130_fd_pr__res_high_po_0p69 l=12.1
X41 VDD a_6589_764# a_7373_764# VDD sky130_fd_pr__pfet_g5v0d10v5 ad=4.35 pd=30.6 as=2.17 ps=15.3 w=15 l=1
X42 x1.R1 D4 a_6164_n4916# VSS sky130_fd_pr__nfet_g5v0d10v5 ad=0.638 pd=4.69 as=0.638 ps=4.69 w=4.4 l=1
X43 x9.V2 x6.V1 VSS sky130_fd_pr__res_high_po_0p69 l=12.1
X44 AVOUT1 a_1412_n4916# VSS sky130_fd_pr__res_high_po_0p69 l=12.1
X45 x2.R1 x1.R1 VSS sky130_fd_pr__res_high_po_0p69 l=12.1
X46 VSS a_11509_n9984# VSS sky130_fd_pr__res_high_po_0p69 l=12.1
X47 AVOUT2 a_6164_n9984# VSS sky130_fd_pr__res_high_po_0p69 l=12.1
X48 x2.R1 x1.R1 VSS sky130_fd_pr__res_high_po_0p69 l=12.1
X49 VOUT a_11509_n4916# VSS sky130_fd_pr__res_high_po_0p69 l=12.1
X50 AVOUT1 a_6164_n4916# VSS sky130_fd_pr__res_high_po_0p69 l=12.1
X51 VSS a_10959_n8604# VSS sky130_fd_pr__res_high_po_0p69 l=12.1
X52 x3.R1 x8.V2 VSS sky130_fd_pr__res_high_po_0p69 l=12.1
X53 VOUT a_10959_n3536# VSS sky130_fd_pr__res_high_po_0p69 l=12.1
X54 a_6582_281# x8.V2 VSS sky130_fd_pr__res_high_po_0p69 l=3.04
X55 VSS a_11014_938# a_10031_764# VSS sky130_fd_pr__nfet_g5v0d10v5 ad=4.48 pd=31.5 as=4.48 ps=31.5 w=15.4 l=1
X56 a_3720_n9984# D3 x2.R1 VSS sky130_fd_pr__nfet_g5v0d10v5 ad=1.27 pd=9.34 as=0.635 ps=4.67 w=4.38 l=1
X57 VDD a_12957_764# a_13741_764# VDD sky130_fd_pr__pfet_g5v0d10v5 ad=4.35 pd=30.6 as=2.17 ps=15.3 w=15 l=1
X58 a_3720_n4916# D3 x1.R1 VSS sky130_fd_pr__nfet_g5v0d10v5 ad=1.27 pd=9.34 as=0.635 ps=4.67 w=4.38 l=1
X59 x9.V2 x6.V1 VSS sky130_fd_pr__res_high_po_0p69 l=12.1
X60 x3.R1 x8.V2 VSS sky130_fd_pr__res_high_po_0p69 l=12.1
X61 x2.R1 x1.R1 VSS sky130_fd_pr__res_high_po_0p69 l=12.1
X62 x2.R1 x1.R1 VSS sky130_fd_pr__res_high_po_0p69 l=12.1
X63 a_7830_938# a_7830_938# VSS VSS sky130_fd_pr__nfet_g5v0d10v5 ad=4.48 pd=31.5 as=4.48 ps=31.5 w=15.4 l=1
X64 x3.R1 x8.V2 VSS sky130_fd_pr__res_high_po_0p69 l=12.1
X65 AVOUT2 a_862_n8604# VSS sky130_fd_pr__res_high_po_0p69 l=12.1
X66 x9.V2 x6.V1 VSS sky130_fd_pr__res_high_po_0p69 l=12.1
X67 x3.R1 x8.V2 VSS sky130_fd_pr__res_high_po_0p69 l=12.1
X68 AVOUT1 a_862_n3536# VSS sky130_fd_pr__res_high_po_0p69 l=12.1
X69 VSS a_7830_938# a_6847_764# VSS sky130_fd_pr__nfet_g5v0d10v5 ad=4.48 pd=31.5 as=4.48 ps=31.5 w=15.4 l=1
X70 x3.R1 x8.V2 VSS sky130_fd_pr__res_high_po_0p69 l=12.1
X71 AVOUT2 a_3720_n9984# VSS sky130_fd_pr__res_high_po_0p69 l=12.1
X72 x2.R1 D3 a_3720_n9984# VSS sky130_fd_pr__nfet_g5v0d10v5 ad=0.635 pd=4.67 as=0.635 ps=4.67 w=4.38 l=1
X73 AVOUT1 a_3720_n4916# VSS sky130_fd_pr__res_high_po_0p69 l=12.1
X74 x3.R1 x8.V2 VSS sky130_fd_pr__res_high_po_0p69 l=12.1
X75 a_6164_n9984# D4 x2.R1 VSS sky130_fd_pr__nfet_g5v0d10v5 ad=0.638 pd=4.69 as=0.638 ps=4.69 w=4.4 l=1
X76 x1.R1 D3 a_3720_n4916# VSS sky130_fd_pr__nfet_g5v0d10v5 ad=0.635 pd=4.67 as=0.635 ps=4.67 w=4.38 l=1
X77 a_10557_764# AVOUT2 a_10031_764# VSS sky130_fd_pr__nfet_g5v0d10v5 ad=4.78 pd=33.6 as=4.78 ps=33.6 w=16.5 l=1
X78 VSS a_16261_n9984# VSS sky130_fd_pr__res_high_po_0p69 l=12.1
X79 x2.R1 x1.R1 VSS sky130_fd_pr__res_high_po_0p69 l=12.1
X80 x2.R1 D3 a_3720_n9984# VSS sky130_fd_pr__nfet_g5v0d10v5 ad=0.635 pd=4.67 as=0.635 ps=4.67 w=4.38 l=1
X81 a_6164_n4916# D4 x1.R1 VSS sky130_fd_pr__nfet_g5v0d10v5 ad=0.638 pd=4.69 as=0.638 ps=4.69 w=4.4 l=1
X82 x1.R1 D3 a_3720_n4916# VSS sky130_fd_pr__nfet_g5v0d10v5 ad=0.635 pd=4.67 as=0.635 ps=4.67 w=4.38 l=1
X83 VOUT a_16261_n4916# VSS sky130_fd_pr__res_high_po_0p69 l=12.1
X84 VSS a_14198_938# a_13215_764# VSS sky130_fd_pr__nfet_g5v0d10v5 ad=4.48 pd=31.5 as=4.48 ps=31.5 w=15.4 l=1
X85 x9.V2 x6.V1 VSS sky130_fd_pr__res_high_po_0p69 l=12.1
X86 VDD a_221_764# a_1005_764# VDD sky130_fd_pr__pfet_g5v0d10v5 ad=4.35 pd=30.6 as=2.17 ps=15.3 w=15 l=1
X87 x2.R1 x1.R1 VSS sky130_fd_pr__res_high_po_0p69 l=12.1
X88 x3.R1 x8.V2 VSS sky130_fd_pr__res_high_po_0p69 l=12.1
X89 a_16261_n9984# D9 x6.V1 VSS sky130_fd_pr__nfet_g5v0d10v5 ad=0.638 pd=4.69 as=0.638 ps=4.69 w=4.4 l=1
X90 AVOUT2 a_6164_n9984# VSS sky130_fd_pr__res_high_po_0p69 l=12.1
X91 x3.R1 x8.V2 VSS sky130_fd_pr__res_high_po_0p69 l=12.1
X92 x9.V2 x6.V1 VSS sky130_fd_pr__res_high_po_0p69 l=12.1
X93 x3.R1 x8.V2 VSS sky130_fd_pr__res_high_po_0p69 l=12.1
X94 a_16261_n4916# D9 x3.R1 VSS sky130_fd_pr__nfet_g5v0d10v5 ad=0.638 pd=4.69 as=0.638 ps=4.69 w=4.4 l=1
X95 AVOUT1 a_6164_n4916# VSS sky130_fd_pr__res_high_po_0p69 l=12.1
X96 VDD a_13741_764# VOUT VDD sky130_fd_pr__pfet_g5v0d10v5 ad=2.76 pd=19.3 as=2.76 ps=19.3 w=19 l=1
X97 x3.R1 x8.V2 VSS sky130_fd_pr__res_high_po_0p69 l=12.1
X98 AVOUT2 a_6164_n9984# VSS sky130_fd_pr__res_high_po_0p69 l=12.1
X99 AVOUT1 a_6164_n4916# VSS sky130_fd_pr__res_high_po_0p69 l=12.1
X100 a_3720_n9984# D3 x2.R1 VSS sky130_fd_pr__nfet_g5v0d10v5 ad=0.635 pd=4.67 as=0.635 ps=4.67 w=4.38 l=1
X101 x2.R1 x1.R1 VSS sky130_fd_pr__res_high_po_0p69 l=12.1
X102 a_3720_n4916# D3 x1.R1 VSS sky130_fd_pr__nfet_g5v0d10v5 ad=0.635 pd=4.67 as=0.635 ps=4.67 w=4.38 l=1
X103 x3.R1 x8.V2 VSS sky130_fd_pr__res_high_po_0p69 l=12.1
X104 VOUT a_13741_764# VDD VDD sky130_fd_pr__pfet_g5v0d10v5 ad=2.76 pd=19.3 as=5.51 ps=38.6 w=19 l=1
X105 x3.R1 x8.V2 VSS sky130_fd_pr__res_high_po_0p69 l=12.1
X106 VSS a_16261_n9984# VSS sky130_fd_pr__res_high_po_0p69 l=12.1
X107 VOUT a_16261_n4916# VSS sky130_fd_pr__res_high_po_0p69 l=12.1
X108 x9.V2 x6.V1 VSS sky130_fd_pr__res_high_po_0p69 l=12.1
X109 x2.R1 x1.R1 VSS sky130_fd_pr__res_high_po_0p69 l=12.1
X110 VSS a_13817_n9984# VSS sky130_fd_pr__res_high_po_0p69 l=12.1
X111 x2.R1 x1.R1 VSS sky130_fd_pr__res_high_po_0p69 l=12.1
X112 VOUT a_13817_n4916# VSS sky130_fd_pr__res_high_po_0p69 l=12.1
X113 x9.V2 x6.V1 VSS sky130_fd_pr__res_high_po_0p69 l=12.1
X114 x9.V2 x6.V1 VSS sky130_fd_pr__res_high_po_0p69 l=12.1
X115 x3.R1 x8.V2 VSS sky130_fd_pr__res_high_po_0p69 l=12.1
X116 x3.R1 x8.V2 VSS sky130_fd_pr__res_high_po_0p69 l=12.1
X117 x2.R1 D2 a_2308_n9984# VSS sky130_fd_pr__nfet_g5v0d10v5 ad=0.674 pd=4.94 as=1.35 ps=9.88 w=4.65 l=1
X118 VSS a_1462_938# a_479_764# VSS sky130_fd_pr__nfet_g5v0d10v5 ad=4.48 pd=31.5 as=4.48 ps=31.5 w=15.4 l=1
X119 x2.R1 x1.R1 VSS sky130_fd_pr__res_high_po_0p69 l=12.1
X120 x2.R1 x1.R1 VSS sky130_fd_pr__res_high_po_0p69 l=12.1
X121 x1.R1 D2 a_2308_n4916# VSS sky130_fd_pr__nfet_g5v0d10v5 ad=0.674 pd=4.94 as=1.35 ps=9.88 w=4.65 l=1
X122 x9.V2 x6.V1 VSS sky130_fd_pr__res_high_po_0p69 l=12.1
X123 AVOUT2 a_6164_n9984# VSS sky130_fd_pr__res_high_po_0p69 l=12.1
X124 a_214_281# AVOUT1 VSS sky130_fd_pr__res_high_po_0p69 l=3.04
X125 x8.V2 a_7373_764# VDD VDD sky130_fd_pr__pfet_g5v0d10v5 ad=2.76 pd=19.3 as=5.51 ps=38.6 w=19 l=1
X126 AVOUT1 a_6164_n4916# VSS sky130_fd_pr__res_high_po_0p69 l=12.1
X127 AVOUT2 a_3720_n9984# VSS sky130_fd_pr__res_high_po_0p69 l=12.1
X128 x9.V2 x6.V1 VSS sky130_fd_pr__res_high_po_0p69 l=12.1
X129 x3.R1 x8.V2 VSS sky130_fd_pr__res_high_po_0p69 l=12.1
X130 x2.R1 x1.R1 VSS sky130_fd_pr__res_high_po_0p69 l=12.1
X131 VSS a_16261_n9984# VSS sky130_fd_pr__res_high_po_0p69 l=12.1
X132 a_214_281# a_1005_764# sky130_fd_pr__cap_mim_m3_1 l=6.9 w=6.9
X133 AVOUT1 a_3720_n4916# VSS sky130_fd_pr__res_high_po_0p69 l=12.1
X134 x2.R1 x1.R1 VSS sky130_fd_pr__res_high_po_0p69 l=12.1
X135 VOUT a_16261_n4916# VSS sky130_fd_pr__res_high_po_0p69 l=12.1
X136 x2.R1 x1.R1 VSS sky130_fd_pr__res_high_po_0p69 l=12.1
X137 a_1412_n9984# D1 x2.R1 VSS sky130_fd_pr__nfet_g5v0d10v5 ad=1.41 pd=10.3 as=0.706 ps=5.16 w=4.87 l=1
X138 x9.V2 x6.V1 VSS sky130_fd_pr__res_high_po_0p69 l=12.1
X139 a_1412_n4916# D1 x1.R1 VSS sky130_fd_pr__nfet_g5v0d10v5 ad=1.41 pd=10.3 as=0.706 ps=5.16 w=4.87 l=1
X140 AVOUT1 a_1005_764# VDD VDD sky130_fd_pr__pfet_g5v0d10v5 ad=2.76 pd=19.3 as=5.51 ps=38.6 w=19 l=1
X141 a_7373_764# AVOUT1 a_6847_764# VSS sky130_fd_pr__nfet_g5v0d10v5 ad=4.78 pd=33.6 as=4.78 ps=33.6 w=16.5 l=1
X142 x9.V2 x6.V1 VSS sky130_fd_pr__res_high_po_0p69 l=12.1
X143 x9.V2 x6.V1 VSS sky130_fd_pr__res_high_po_0p69 l=12.1
X144 AVOUT2 a_1412_n9984# VSS sky130_fd_pr__res_high_po_0p69 l=12.1
X145 x3.R1 x8.V2 VSS sky130_fd_pr__res_high_po_0p69 l=12.1
X146 x3.R1 x8.V2 VSS sky130_fd_pr__res_high_po_0p69 l=12.1
X147 AVOUT1 a_1412_n4916# VSS sky130_fd_pr__res_high_po_0p69 l=12.1
X148 a_11014_938# VDD VDD VSS sky130_fd_pr__nfet_g5v0d10v5 ad=0.2 pd=1.96 as=0.2 ps=1.96 w=0.69 l=1
X149 x3.R1 x8.V2 VSS sky130_fd_pr__res_high_po_0p69 l=12.1
X150 x2.R1 D4 a_6164_n9984# VSS sky130_fd_pr__nfet_g5v0d10v5 ad=0.638 pd=4.69 as=0.638 ps=4.69 w=4.4 l=1
X151 a_4646_938# a_4646_938# VSS VSS sky130_fd_pr__nfet_g5v0d10v5 ad=4.48 pd=31.5 as=4.48 ps=31.5 w=15.4 l=1
X152 AVOUT2 a_6164_n9984# VSS sky130_fd_pr__res_high_po_0p69 l=12.1
X153 x1.R1 D4 a_6164_n4916# VSS sky130_fd_pr__nfet_g5v0d10v5 ad=0.638 pd=4.69 as=0.638 ps=4.69 w=4.4 l=1
X154 x3.R1 x8.V2 VSS sky130_fd_pr__res_high_po_0p69 l=12.1
X155 AVOUT1 a_6164_n4916# VSS sky130_fd_pr__res_high_po_0p69 l=12.1
X156 VDD a_221_764# a_221_764# VDD sky130_fd_pr__pfet_g5v0d10v5 ad=4.35 pd=30.6 as=2.17 ps=15.3 w=15 l=1
X157 VSS a_16261_n9984# VSS sky130_fd_pr__res_high_po_0p69 l=12.1
X158 x2.R1 D4 a_6164_n9984# VSS sky130_fd_pr__nfet_g5v0d10v5 ad=0.638 pd=4.69 as=0.638 ps=4.69 w=4.4 l=1
X159 a_12405_n9984# D7 x6.V1 VSS sky130_fd_pr__nfet_g5v0d10v5 ad=0.674 pd=4.94 as=0.674 ps=4.94 w=4.65 l=1
X160 x9.V2 x6.V1 VSS sky130_fd_pr__res_high_po_0p69 l=12.1
X161 x3.R1 x8.V2 VSS sky130_fd_pr__res_high_po_0p69 l=12.1
X162 a_12405_n4916# D7 x3.R1 VSS sky130_fd_pr__nfet_g5v0d10v5 ad=0.674 pd=4.94 as=0.674 ps=4.94 w=4.65 l=1
X163 x1.R1 D4 a_6164_n4916# VSS sky130_fd_pr__nfet_g5v0d10v5 ad=0.638 pd=4.69 as=0.638 ps=4.69 w=4.4 l=1
X164 VOUT a_16261_n4916# VSS sky130_fd_pr__res_high_po_0p69 l=12.1
X165 x2.R1 x1.R1 VSS sky130_fd_pr__res_high_po_0p69 l=12.1
X166 VSS a_13817_n9984# VSS sky130_fd_pr__res_high_po_0p69 l=12.1
X167 x9.V2 x6.V1 VSS sky130_fd_pr__res_high_po_0p69 l=12.1
X168 x3.R1 x8.V2 VSS sky130_fd_pr__res_high_po_0p69 l=12.1
X169 a_12950_281# a_13741_764# sky130_fd_pr__cap_mim_m3_1 l=6.9 w=6.9
X170 VOUT a_13817_n4916# VSS sky130_fd_pr__res_high_po_0p69 l=12.1
X171 x9.V2 x6.V1 VSS sky130_fd_pr__res_high_po_0p69 l=12.1
X172 a_221_764# a_221_764# VDD VDD sky130_fd_pr__pfet_g5v0d10v5 ad=2.17 pd=15.3 as=4.35 ps=30.6 w=15 l=1
X173 VSS a_16261_n9984# VSS sky130_fd_pr__res_high_po_0p69 l=12.1
X174 VOUT a_16261_n4916# VSS sky130_fd_pr__res_high_po_0p69 l=12.1
X175 x6.V1 D9 a_16261_n9984# VSS sky130_fd_pr__nfet_g5v0d10v5 ad=0.638 pd=4.69 as=0.638 ps=4.69 w=4.4 l=1
X176 x2.R1 x1.R1 VSS sky130_fd_pr__res_high_po_0p69 l=12.1
X177 x3.R1 D9 a_16261_n4916# VSS sky130_fd_pr__nfet_g5v0d10v5 ad=0.638 pd=4.69 as=0.638 ps=4.69 w=4.4 l=1
X178 x2.R1 x1.R1 VSS sky130_fd_pr__res_high_po_0p69 l=12.1
X179 AVOUT2 a_6164_n9984# VSS sky130_fd_pr__res_high_po_0p69 l=12.1
X180 a_6164_n9984# D4 x2.R1 VSS sky130_fd_pr__nfet_g5v0d10v5 ad=0.638 pd=4.69 as=0.638 ps=4.69 w=4.4 l=1
X181 AVOUT1 a_6164_n4916# VSS sky130_fd_pr__res_high_po_0p69 l=12.1
X182 x3.R1 x8.V2 VSS sky130_fd_pr__res_high_po_0p69 l=12.1
X183 a_6164_n4916# D4 x1.R1 VSS sky130_fd_pr__nfet_g5v0d10v5 ad=0.638 pd=4.69 as=0.638 ps=4.69 w=4.4 l=1
X184 x9.V2 x6.V1 VSS sky130_fd_pr__res_high_po_0p69 l=12.1
X185 a_10031_764# x9.V2 a_9773_764# VSS sky130_fd_pr__nfet_g5v0d10v5 ad=4.78 pd=33.6 as=4.78 ps=33.6 w=16.5 l=1
X186 x3.R1 x8.V2 VSS sky130_fd_pr__res_high_po_0p69 l=12.1
X187 x2.R1 x1.R1 VSS sky130_fd_pr__res_high_po_0p69 l=12.1
X188 a_6164_n9984# D4 x2.R1 VSS sky130_fd_pr__nfet_g5v0d10v5 ad=0.638 pd=4.69 as=0.638 ps=4.69 w=4.4 l=1
X189 VDD a_10557_764# x9.V2 VDD sky130_fd_pr__pfet_g5v0d10v5 ad=2.76 pd=19.3 as=2.76 ps=19.3 w=19 l=1
X190 x3.R1 x8.V2 VSS sky130_fd_pr__res_high_po_0p69 l=12.1
X191 a_6164_n4916# D4 x1.R1 VSS sky130_fd_pr__nfet_g5v0d10v5 ad=0.638 pd=4.69 as=0.638 ps=4.69 w=4.4 l=1
X192 x9.V2 x6.V1 VSS sky130_fd_pr__res_high_po_0p69 l=12.1
X193 AVOUT2 a_6164_n9984# VSS sky130_fd_pr__res_high_po_0p69 l=12.1
X194 AVOUT1 a_6164_n4916# VSS sky130_fd_pr__res_high_po_0p69 l=12.1
X195 x3.R1 x8.V2 VSS sky130_fd_pr__res_high_po_0p69 l=12.1
X196 VSS a_16261_n9984# VSS sky130_fd_pr__res_high_po_0p69 l=12.1
X197 a_16261_n9984# D9 x6.V1 VSS sky130_fd_pr__nfet_g5v0d10v5 ad=0.638 pd=4.69 as=0.638 ps=4.69 w=4.4 l=1
X198 x2.R1 x1.R1 VSS sky130_fd_pr__res_high_po_0p69 l=12.1
X199 x9.V2 a_10557_764# VDD VDD sky130_fd_pr__pfet_g5v0d10v5 ad=2.76 pd=19.3 as=5.51 ps=38.6 w=19 l=1
X200 VOUT a_16261_n4916# VSS sky130_fd_pr__res_high_po_0p69 l=12.1
X201 x2.R1 x1.R1 VSS sky130_fd_pr__res_high_po_0p69 l=12.1
X202 a_16261_n4916# D9 x3.R1 VSS sky130_fd_pr__nfet_g5v0d10v5 ad=0.638 pd=4.69 as=0.638 ps=4.69 w=4.4 l=1
X203 x9.V2 x6.V1 VSS sky130_fd_pr__res_high_po_0p69 l=12.1
X204 AVOUT2 a_4646_938# VSS VSS sky130_fd_pr__nfet_g5v0d10v5 ad=5.51 pd=38.6 as=5.51 ps=38.6 w=19 l=1
X205 a_16261_n9984# D9 x6.V1 VSS sky130_fd_pr__nfet_g5v0d10v5 ad=0.638 pd=4.69 as=0.638 ps=4.69 w=4.4 l=1
X206 a_16261_n4916# D9 x3.R1 VSS sky130_fd_pr__nfet_g5v0d10v5 ad=0.638 pd=4.69 as=0.638 ps=4.69 w=4.4 l=1
X207 x9.V2 x6.V1 VSS sky130_fd_pr__res_high_po_0p69 l=12.1
X208 x9.V2 x6.V1 VSS sky130_fd_pr__res_high_po_0p69 l=12.1
X209 x2.R1 D4 a_6164_n9984# VSS sky130_fd_pr__nfet_g5v0d10v5 ad=0.638 pd=4.69 as=1.28 ps=9.38 w=4.4 l=1
X210 x9.V2 x6.V1 VSS sky130_fd_pr__res_high_po_0p69 l=12.1
X211 x3.R1 x8.V2 VSS sky130_fd_pr__res_high_po_0p69 l=12.1
X212 VSS a_10431_n8604# VSS sky130_fd_pr__res_high_po_0p69 l=12.1
X213 x3.R1 x8.V2 VSS sky130_fd_pr__res_high_po_0p69 l=12.1
X214 x1.R1 D4 a_6164_n4916# VSS sky130_fd_pr__nfet_g5v0d10v5 ad=0.638 pd=4.69 as=1.28 ps=9.38 w=4.4 l=1
X215 VOUT a_10431_n3536# VSS sky130_fd_pr__res_high_po_0p69 l=12.1
X216 x3.R1 x8.V2 VSS sky130_fd_pr__res_high_po_0p69 l=12.1
X217 a_479_764# x1.R1 a_221_764# VSS sky130_fd_pr__nfet_g5v0d10v5 ad=4.78 pd=33.6 as=4.78 ps=33.6 w=16.5 l=1
X218 AVOUT2 a_3720_n9984# VSS sky130_fd_pr__res_high_po_0p69 l=12.1
X219 AVOUT1 a_3720_n4916# VSS sky130_fd_pr__res_high_po_0p69 l=12.1
X220 x9.V2 a_10557_764# VDD VDD sky130_fd_pr__pfet_g5v0d10v5 ad=2.76 pd=19.3 as=2.76 ps=19.3 w=19 l=1
X221 a_7830_938# VDD VDD VSS sky130_fd_pr__nfet_g5v0d10v5 ad=0.2 pd=1.96 as=0.2 ps=1.96 w=0.69 l=1
X222 a_9766_281# a_10557_764# sky130_fd_pr__cap_mim_m3_1 l=6.9 w=6.9
X223 AVOUT2 a_4189_764# VDD VDD sky130_fd_pr__pfet_g5v0d10v5 ad=2.76 pd=19.3 as=5.51 ps=38.6 w=19 l=1
X224 a_16261_n9984# D9 x6.V1 VSS sky130_fd_pr__nfet_g5v0d10v5 ad=1.28 pd=9.38 as=0.638 ps=4.69 w=4.4 l=1
X225 x9.V2 x6.V1 VSS sky130_fd_pr__res_high_po_0p69 l=12.1
X226 x6.V1 D9 a_16261_n9984# VSS sky130_fd_pr__nfet_g5v0d10v5 ad=0.638 pd=4.69 as=1.28 ps=9.38 w=4.4 l=1
X227 a_16261_n4916# D9 x3.R1 VSS sky130_fd_pr__nfet_g5v0d10v5 ad=1.28 pd=9.38 as=0.638 ps=4.69 w=4.4 l=1
X228 AVOUT2 a_3720_n9984# VSS sky130_fd_pr__res_high_po_0p69 l=12.1
X229 x3.R1 D9 a_16261_n4916# VSS sky130_fd_pr__nfet_g5v0d10v5 ad=0.638 pd=4.69 as=1.28 ps=9.38 w=4.4 l=1
X230 a_3398_281# AVOUT2 VSS sky130_fd_pr__res_high_po_0p69 l=3.04
X231 AVOUT1 a_3720_n4916# VSS sky130_fd_pr__res_high_po_0p69 l=12.1
X232 x9.V2 x6.V1 VSS sky130_fd_pr__res_high_po_0p69 l=12.1
X233 VSS a_13817_n9984# VSS sky130_fd_pr__res_high_po_0p69 l=12.1
X234 a_3720_n9984# D3 x2.R1 VSS sky130_fd_pr__nfet_g5v0d10v5 ad=0.635 pd=4.67 as=0.635 ps=4.67 w=4.38 l=1
X235 x9.V2 x6.V1 VSS sky130_fd_pr__res_high_po_0p69 l=12.1
X236 x2.R1 x1.R1 VSS sky130_fd_pr__res_high_po_0p69 l=12.1
X237 VOUT a_13817_n4916# VSS sky130_fd_pr__res_high_po_0p69 l=12.1
X238 a_3720_n4916# D3 x1.R1 VSS sky130_fd_pr__nfet_g5v0d10v5 ad=0.635 pd=4.67 as=0.635 ps=4.67 w=4.38 l=1
X239 x8.V2 a_7373_764# VDD VDD sky130_fd_pr__pfet_g5v0d10v5 ad=2.76 pd=19.3 as=2.76 ps=19.3 w=19 l=1
X240 x9.V2 x6.V1 VSS sky130_fd_pr__res_high_po_0p69 l=12.1
X241 x9.V2 x6.V1 VSS sky130_fd_pr__res_high_po_0p69 l=12.1
X242 x3.R1 x8.V2 VSS sky130_fd_pr__res_high_po_0p69 l=12.1
X243 x9.V2 x6.V1 VSS sky130_fd_pr__res_high_po_0p69 l=12.1
X244 x2.R1 x1.R1 VSS sky130_fd_pr__res_high_po_0p69 l=12.1
X245 x2.R1 x1.R1 VSS sky130_fd_pr__res_high_po_0p69 l=12.1
X246 x3.R1 x8.V2 VSS sky130_fd_pr__res_high_po_0p69 l=12.1
X247 x2.R1 x1.R1 VSS sky130_fd_pr__res_high_po_0p69 l=12.1
X248 x6.V1 D9 a_16261_n9984# VSS sky130_fd_pr__nfet_g5v0d10v5 ad=0.638 pd=4.69 as=0.638 ps=4.69 w=4.4 l=1
X249 a_13817_n9984# D8 x6.V1 VSS sky130_fd_pr__nfet_g5v0d10v5 ad=0.635 pd=4.67 as=0.635 ps=4.67 w=4.38 l=1
X250 x3.R1 D9 a_16261_n4916# VSS sky130_fd_pr__nfet_g5v0d10v5 ad=0.638 pd=4.69 as=0.638 ps=4.69 w=4.4 l=1
X251 x9.V2 x6.V1 VSS sky130_fd_pr__res_high_po_0p69 l=12.1
X252 VDD a_7373_764# x8.V2 VDD sky130_fd_pr__pfet_g5v0d10v5 ad=2.76 pd=19.3 as=2.76 ps=19.3 w=19 l=1
X253 AVOUT2 a_6164_n9984# VSS sky130_fd_pr__res_high_po_0p69 l=12.1
X254 x6.V1 D9 a_16261_n9984# VSS sky130_fd_pr__nfet_g5v0d10v5 ad=0.638 pd=4.69 as=0.638 ps=4.69 w=4.4 l=1
X255 a_13817_n4916# D8 x3.R1 VSS sky130_fd_pr__nfet_g5v0d10v5 ad=0.635 pd=4.67 as=0.635 ps=4.67 w=4.38 l=1
X256 AVOUT1 a_6164_n4916# VSS sky130_fd_pr__res_high_po_0p69 l=12.1
X257 x3.R1 D9 a_16261_n4916# VSS sky130_fd_pr__nfet_g5v0d10v5 ad=0.638 pd=4.69 as=0.638 ps=4.69 w=4.4 l=1
X258 x3.R1 x8.V2 VSS sky130_fd_pr__res_high_po_0p69 l=12.1
X259 x2.R1 x1.R1 VSS sky130_fd_pr__res_high_po_0p69 l=12.1
X260 x2.R1 D2 a_2308_n9984# VSS sky130_fd_pr__nfet_g5v0d10v5 ad=0.674 pd=4.94 as=0.674 ps=4.94 w=4.65 l=1
X261 x9.V2 x6.V1 VSS sky130_fd_pr__res_high_po_0p69 l=12.1
X262 x2.R1 x1.R1 VSS sky130_fd_pr__res_high_po_0p69 l=12.1
X263 x3.R1 x8.V2 VSS sky130_fd_pr__res_high_po_0p69 l=12.1
X264 VSS a_12405_n9984# VSS sky130_fd_pr__res_high_po_0p69 l=12.1
X265 VSS a_16261_n9984# VSS sky130_fd_pr__res_high_po_0p69 l=12.1
X266 x1.R1 D2 a_2308_n4916# VSS sky130_fd_pr__nfet_g5v0d10v5 ad=0.674 pd=4.94 as=0.674 ps=4.94 w=4.65 l=1
X267 VOUT a_12405_n4916# VSS sky130_fd_pr__res_high_po_0p69 l=12.1
X268 VOUT a_16261_n4916# VSS sky130_fd_pr__res_high_po_0p69 l=12.1
X269 a_6847_764# x8.V2 a_6589_764# VSS sky130_fd_pr__nfet_g5v0d10v5 ad=4.78 pd=33.6 as=4.78 ps=33.6 w=16.5 l=1
X270 x2.R1 x1.R1 VSS sky130_fd_pr__res_high_po_0p69 l=12.1
X271 a_10431_n8604# VDD x6.V1 VSS sky130_fd_pr__nfet_g5v0d10v5 ad=1.38 pd=10.1 as=1.38 ps=10.1 w=4.77 l=1
X272 x6.V1 D7 a_12405_n9984# VSS sky130_fd_pr__nfet_g5v0d10v5 ad=0.674 pd=4.94 as=0.674 ps=4.94 w=4.65 l=1
X273 a_10431_n3536# VDD x3.R1 VSS sky130_fd_pr__nfet_g5v0d10v5 ad=1.38 pd=10.1 as=1.38 ps=10.1 w=4.77 l=1
X274 a_16261_n9984# D9 x6.V1 VSS sky130_fd_pr__nfet_g5v0d10v5 ad=0.638 pd=4.69 as=0.638 ps=4.69 w=4.4 l=1
X275 x3.R1 D7 a_12405_n4916# VSS sky130_fd_pr__nfet_g5v0d10v5 ad=0.674 pd=4.94 as=0.674 ps=4.94 w=4.65 l=1
X276 x3.R1 x8.V2 VSS sky130_fd_pr__res_high_po_0p69 l=12.1
X277 a_16261_n4916# D9 x3.R1 VSS sky130_fd_pr__nfet_g5v0d10v5 ad=0.638 pd=4.69 as=0.638 ps=4.69 w=4.4 l=1
X278 a_2308_n9984# D2 x2.R1 VSS sky130_fd_pr__nfet_g5v0d10v5 ad=0.674 pd=4.94 as=0.674 ps=4.94 w=4.65 l=1
X279 x3.R1 x8.V2 VSS sky130_fd_pr__res_high_po_0p69 l=12.1
X280 AVOUT2 a_6164_n9984# VSS sky130_fd_pr__res_high_po_0p69 l=12.1
X281 a_16261_n9984# D9 x6.V1 VSS sky130_fd_pr__nfet_g5v0d10v5 ad=0.638 pd=4.69 as=0.638 ps=4.69 w=4.4 l=1
X282 x2.R1 x1.R1 VSS sky130_fd_pr__res_high_po_0p69 l=12.1
X283 AVOUT2 a_6164_n9984# VSS sky130_fd_pr__res_high_po_0p69 l=12.1
X284 a_2308_n4916# D2 x1.R1 VSS sky130_fd_pr__nfet_g5v0d10v5 ad=0.674 pd=4.94 as=0.674 ps=4.94 w=4.65 l=1
X285 AVOUT1 a_6164_n4916# VSS sky130_fd_pr__res_high_po_0p69 l=12.1
X286 x9.V2 x6.V1 VSS sky130_fd_pr__res_high_po_0p69 l=12.1
X287 a_16261_n4916# D9 x3.R1 VSS sky130_fd_pr__nfet_g5v0d10v5 ad=0.638 pd=4.69 as=0.638 ps=4.69 w=4.4 l=1
X288 AVOUT1 a_6164_n4916# VSS sky130_fd_pr__res_high_po_0p69 l=12.1
X289 VDD a_1005_764# AVOUT1 VDD sky130_fd_pr__pfet_g5v0d10v5 ad=5.51 pd=38.6 as=2.76 ps=19.3 w=19 l=1
X290 AVOUT2 a_3720_n9984# VSS sky130_fd_pr__res_high_po_0p69 l=12.1
X291 x3.R1 x8.V2 VSS sky130_fd_pr__res_high_po_0p69 l=12.1
X292 AVOUT1 a_3720_n4916# VSS sky130_fd_pr__res_high_po_0p69 l=12.1
X293 a_12957_764# a_12957_764# VDD VDD sky130_fd_pr__pfet_g5v0d10v5 ad=2.17 pd=15.3 as=4.35 ps=30.6 w=15 l=1
X294 x2.R1 x1.R1 VSS sky130_fd_pr__res_high_po_0p69 l=12.1
X295 x9.V2 x6.V1 VSS sky130_fd_pr__res_high_po_0p69 l=12.1
X296 a_12950_281# VOUT VSS sky130_fd_pr__res_high_po_0p69 l=3.04
X297 AVOUT1 a_1005_764# VDD VDD sky130_fd_pr__pfet_g5v0d10v5 ad=2.76 pd=19.3 as=2.76 ps=19.3 w=19 l=1
X298 VSS a_13817_n9984# VSS sky130_fd_pr__res_high_po_0p69 l=12.1
X299 VSS a_16261_n9984# VSS sky130_fd_pr__res_high_po_0p69 l=12.1
X300 a_4646_938# VDD VDD VSS sky130_fd_pr__nfet_g5v0d10v5 ad=0.2 pd=1.96 as=0.2 ps=1.96 w=0.69 l=1
X301 VOUT a_13817_n4916# VSS sky130_fd_pr__res_high_po_0p69 l=12.1
X302 VOUT a_16261_n4916# VSS sky130_fd_pr__res_high_po_0p69 l=12.1
X303 x3.R1 x8.V2 VSS sky130_fd_pr__res_high_po_0p69 l=12.1
X304 x9.V2 x6.V1 VSS sky130_fd_pr__res_high_po_0p69 l=12.1
X305 x9.V2 x6.V1 VSS sky130_fd_pr__res_high_po_0p69 l=12.1
X306 VDD a_1005_764# AVOUT1 VDD sky130_fd_pr__pfet_g5v0d10v5 ad=2.76 pd=19.3 as=2.76 ps=19.3 w=19 l=1
X307 AVOUT2 a_2308_n9984# VSS sky130_fd_pr__res_high_po_0p69 l=12.1
X308 AVOUT1 a_2308_n4916# VSS sky130_fd_pr__res_high_po_0p69 l=12.1
X309 x3.R1 x8.V2 VSS sky130_fd_pr__res_high_po_0p69 l=12.1
X310 x2.R1 x1.R1 VSS sky130_fd_pr__res_high_po_0p69 l=12.1
X311 x9.V2 x6.V1 VSS sky130_fd_pr__res_high_po_0p69 l=12.1
X312 x3.R1 x8.V2 VSS sky130_fd_pr__res_high_po_0p69 l=12.1
X313 VSS a_12405_n9984# VSS sky130_fd_pr__res_high_po_0p69 l=12.1
X314 a_3398_281# a_4189_764# sky130_fd_pr__cap_mim_m3_1 l=6.9 w=6.9
X315 a_3663_764# x2.R1 a_3405_764# VSS sky130_fd_pr__nfet_g5v0d10v5 ad=4.78 pd=33.6 as=4.78 ps=33.6 w=16.5 l=1
X316 VOUT a_12405_n4916# VSS sky130_fd_pr__res_high_po_0p69 l=12.1
X317 VDD a_4189_764# AVOUT2 VDD sky130_fd_pr__pfet_g5v0d10v5 ad=5.51 pd=38.6 as=2.76 ps=19.3 w=19 l=1
X318 VSS a_12405_n9984# VSS sky130_fd_pr__res_high_po_0p69 l=12.1
X319 x2.R1 x1.R1 VSS sky130_fd_pr__res_high_po_0p69 l=12.1
X320 VOUT a_12405_n4916# VSS sky130_fd_pr__res_high_po_0p69 l=12.1
X321 x2.R1 x1.R1 VSS sky130_fd_pr__res_high_po_0p69 l=12.1
X322 a_13817_n9984# D8 x6.V1 VSS sky130_fd_pr__nfet_g5v0d10v5 ad=0.635 pd=4.67 as=0.635 ps=4.67 w=4.38 l=1
X323 a_13817_n4916# D8 x3.R1 VSS sky130_fd_pr__nfet_g5v0d10v5 ad=0.635 pd=4.67 as=0.635 ps=4.67 w=4.38 l=1
X324 x9.V2 x6.V1 VSS sky130_fd_pr__res_high_po_0p69 l=12.1
X325 a_6582_281# a_7373_764# sky130_fd_pr__cap_mim_m3_1 l=6.9 w=6.9
X326 x9.V2 x6.V1 VSS sky130_fd_pr__res_high_po_0p69 l=12.1
X327 AVOUT2 a_4189_764# VDD VDD sky130_fd_pr__pfet_g5v0d10v5 ad=2.76 pd=19.3 as=2.76 ps=19.3 w=19 l=1
X328 x3.R1 x8.V2 VSS sky130_fd_pr__res_high_po_0p69 l=12.1
X329 x2.R1 x1.R1 VSS sky130_fd_pr__res_high_po_0p69 l=12.1
X330 x3.R1 x8.V2 VSS sky130_fd_pr__res_high_po_0p69 l=12.1
X331 x3.R1 x8.V2 VSS sky130_fd_pr__res_high_po_0p69 l=12.1
X332 a_6164_n9984# D4 x2.R1 VSS sky130_fd_pr__nfet_g5v0d10v5 ad=1.28 pd=9.38 as=0.638 ps=4.69 w=4.4 l=1
X333 VDD a_10557_764# x9.V2 VDD sky130_fd_pr__pfet_g5v0d10v5 ad=5.51 pd=38.6 as=2.76 ps=19.3 w=19 l=1
X334 x3.R1 x8.V2 VSS sky130_fd_pr__res_high_po_0p69 l=12.1
X335 a_6164_n4916# D4 x1.R1 VSS sky130_fd_pr__nfet_g5v0d10v5 ad=1.28 pd=9.38 as=0.638 ps=4.69 w=4.4 l=1
X336 VDD a_4189_764# AVOUT2 VDD sky130_fd_pr__pfet_g5v0d10v5 ad=2.76 pd=19.3 as=2.76 ps=19.3 w=19 l=1
X337 x2.R1 x1.R1 VSS sky130_fd_pr__res_high_po_0p69 l=12.1
X338 x2.R1 x1.R1 VSS sky130_fd_pr__res_high_po_0p69 l=12.1
X339 x9.V2 x6.V1 VSS sky130_fd_pr__res_high_po_0p69 l=12.1
X340 a_4189_764# V1 a_3663_764# VSS sky130_fd_pr__nfet_g5v0d10v5 ad=4.78 pd=33.6 as=4.78 ps=33.6 w=16.5 l=1
X341 a_1462_938# VDD VDD VSS sky130_fd_pr__nfet_g5v0d10v5 ad=0.2 pd=1.96 as=0.2 ps=1.96 w=0.69 l=1
X342 x9.V2 x6.V1 VSS sky130_fd_pr__res_high_po_0p69 l=12.1
X343 a_9773_764# a_9773_764# VDD VDD sky130_fd_pr__pfet_g5v0d10v5 ad=2.17 pd=15.3 as=4.35 ps=30.6 w=15 l=1
X344 VSS a_16261_n9984# VSS sky130_fd_pr__res_high_po_0p69 l=12.1
X345 x3.R1 x8.V2 VSS sky130_fd_pr__res_high_po_0p69 l=12.1
X346 a_2308_n9984# D2 x2.R1 VSS sky130_fd_pr__nfet_g5v0d10v5 ad=1.35 pd=9.88 as=0.674 ps=4.94 w=4.65 l=1
X347 VOUT a_16261_n4916# VSS sky130_fd_pr__res_high_po_0p69 l=12.1
X348 a_2308_n4916# D2 x1.R1 VSS sky130_fd_pr__nfet_g5v0d10v5 ad=1.35 pd=9.88 as=0.674 ps=4.94 w=4.65 l=1
X349 x2.R1 x1.R1 VSS sky130_fd_pr__res_high_po_0p69 l=12.1
X350 x2.R1 x1.R1 VSS sky130_fd_pr__res_high_po_0p69 l=12.1
X351 VDD a_9773_764# a_10557_764# VDD sky130_fd_pr__pfet_g5v0d10v5 ad=4.35 pd=30.6 as=2.17 ps=15.3 w=15 l=1
X352 x6.V1 D9 a_16261_n9984# VSS sky130_fd_pr__nfet_g5v0d10v5 ad=0.638 pd=4.69 as=0.638 ps=4.69 w=4.4 l=1
X353 x2.R1 D4 a_6164_n9984# VSS sky130_fd_pr__nfet_g5v0d10v5 ad=0.638 pd=4.69 as=0.638 ps=4.69 w=4.4 l=1
X354 a_1005_764# V2 a_479_764# VSS sky130_fd_pr__nfet_g5v0d10v5 ad=4.78 pd=33.6 as=4.78 ps=33.6 w=16.5 l=1
X355 x3.R1 D9 a_16261_n4916# VSS sky130_fd_pr__nfet_g5v0d10v5 ad=0.638 pd=4.69 as=0.638 ps=4.69 w=4.4 l=1
X356 AVOUT2 a_6164_n9984# VSS sky130_fd_pr__res_high_po_0p69 l=12.1
X357 x1.R1 D4 a_6164_n4916# VSS sky130_fd_pr__nfet_g5v0d10v5 ad=0.638 pd=4.69 as=0.638 ps=4.69 w=4.4 l=1
X358 a_9766_281# x9.V2 VSS sky130_fd_pr__res_high_po_0p69 l=3.04
X359 x2.R1 x1.R1 VSS sky130_fd_pr__res_high_po_0p69 l=12.1
X360 AVOUT2 a_334_n8604# VSS sky130_fd_pr__res_high_po_0p69 l=12.1
X361 AVOUT1 a_6164_n4916# VSS sky130_fd_pr__res_high_po_0p69 l=12.1
X362 x2.R1 D4 a_6164_n9984# VSS sky130_fd_pr__nfet_g5v0d10v5 ad=0.638 pd=4.69 as=0.638 ps=4.69 w=4.4 l=1
X363 a_12405_n9984# D7 x6.V1 VSS sky130_fd_pr__nfet_g5v0d10v5 ad=1.35 pd=9.88 as=0.674 ps=4.94 w=4.65 l=1
X364 a_10557_764# a_9773_764# VDD VDD sky130_fd_pr__pfet_g5v0d10v5 ad=2.17 pd=15.3 as=4.35 ps=30.6 w=15 l=1
X365 a_12405_n4916# D7 x3.R1 VSS sky130_fd_pr__nfet_g5v0d10v5 ad=1.35 pd=9.88 as=0.674 ps=4.94 w=4.65 l=1
X366 x1.R1 D4 a_6164_n4916# VSS sky130_fd_pr__nfet_g5v0d10v5 ad=0.638 pd=4.69 as=0.638 ps=4.69 w=4.4 l=1
X367 AVOUT1 a_334_n3536# VSS sky130_fd_pr__res_high_po_0p69 l=12.1
X368 x9.V2 x6.V1 VSS sky130_fd_pr__res_high_po_0p69 l=12.1
X369 AVOUT2 a_2308_n9984# VSS sky130_fd_pr__res_high_po_0p69 l=12.1
X370 x2.R1 D1 a_1412_n9984# VSS sky130_fd_pr__nfet_g5v0d10v5 ad=0.706 pd=5.16 as=1.41 ps=10.3 w=4.87 l=1
X371 AVOUT2 a_6164_n9984# VSS sky130_fd_pr__res_high_po_0p69 l=12.1
X372 AVOUT1 a_2308_n4916# VSS sky130_fd_pr__res_high_po_0p69 l=12.1
X373 x2.R1 x1.R1 VSS sky130_fd_pr__res_high_po_0p69 l=12.1
X374 x1.R1 D1 a_1412_n4916# VSS sky130_fd_pr__nfet_g5v0d10v5 ad=0.706 pd=5.16 as=1.41 ps=10.3 w=4.87 l=1
X375 AVOUT1 a_6164_n4916# VSS sky130_fd_pr__res_high_po_0p69 l=12.1
X376 x3.R1 x8.V2 VSS sky130_fd_pr__res_high_po_0p69 l=12.1
X377 VSS a_16261_n9984# VSS sky130_fd_pr__res_high_po_0p69 l=12.1
X378 VDD a_13741_764# VOUT VDD sky130_fd_pr__pfet_g5v0d10v5 ad=5.51 pd=38.6 as=2.76 ps=19.3 w=19 l=1
X379 VOUT a_16261_n4916# VSS sky130_fd_pr__res_high_po_0p69 l=12.1
X380 x9.V2 x6.V1 VSS sky130_fd_pr__res_high_po_0p69 l=12.1