** sch_path: /foss/designs/sky130_hcmus_ip__instramp/xschem/multiplier.sch
.subckt multiplier G D S B
*.PININFO G:B D:B S:B B:B
XM1 D G S B sky130_fd_pr__nfet_g5v0d10v5 L=0.5 W=1 nf=1 m=4
.ends
.end
